(PID.TID 0000.0001) 
(PID.TID 0000.0001) // ======================================================
(PID.TID 0000.0001) //                      MITgcm UV
(PID.TID 0000.0001) //                      =========
(PID.TID 0000.0001) // ======================================================
(PID.TID 0000.0001) // execution environment starting up...
(PID.TID 0000.0001) 
(PID.TID 0000.0001) // MITgcmUV version:  checkpoint66o
(PID.TID 0000.0001) // Build user:        estrobac
(PID.TID 0000.0001) // Build host:        pfe25
(PID.TID 0000.0001) // Build date:        Tue Apr 17 12:40:30 PDT 2018
(PID.TID 0000.0001) 
(PID.TID 0000.0001) // =======================================================
(PID.TID 0000.0001) // Execution Environment parameter file "eedata"
(PID.TID 0000.0001) // =======================================================
(PID.TID 0000.0001) ># Example "eedata" file
(PID.TID 0000.0001) ># Lines beginning "#" are comments
(PID.TID 0000.0001) ># nTx - No. threads per process in X
(PID.TID 0000.0001) ># nTy - No. threads per process in Y
(PID.TID 0000.0001) > &EEPARMS
(PID.TID 0000.0001) > useCubedSphereExchange=.TRUE.,
(PID.TID 0000.0001) > nTx=1,
(PID.TID 0000.0001) > nTy=1,
(PID.TID 0000.0001) > debugMode=.TRUE.,
(PID.TID 0000.0001) > &
(PID.TID 0000.0001) 
(PID.TID 0000.0001) // =======================================================
(PID.TID 0000.0001) // Computational Grid Specification ( see files "SIZE.h" )
(PID.TID 0000.0001) //                                  ( and "eedata"       )
(PID.TID 0000.0001) // =======================================================
(PID.TID 0000.0001)      nPx = 2880 ; /* No. processes in X */
(PID.TID 0000.0001)      nPy =    1 ; /* No. processes in Y */
(PID.TID 0000.0001)      nSx =    1 ; /* No. tiles in X per process */
(PID.TID 0000.0001)      nSy =    1 ; /* No. tiles in Y per process */
(PID.TID 0000.0001)      sNx =   60 ; /* Tile size in X */
(PID.TID 0000.0001)      sNy =   60 ; /* Tile size in Y */
(PID.TID 0000.0001)      OLx =    8 ; /* Tile overlap distance in X */
(PID.TID 0000.0001)      OLy =    8 ; /* Tile overlap distance in Y */
(PID.TID 0000.0001)      nTx =    1 ; /* No. threads in X per process */
(PID.TID 0000.0001)      nTy =    1 ; /* No. threads in Y per process */
(PID.TID 0000.0001)       Nr =   90 ; /* No. levels in the vertical   */
(PID.TID 0000.0001)       Nx =***** ; /* Total domain size in X ( = nPx*nSx*sNx ) */
(PID.TID 0000.0001)       Ny =   60 ; /* Total domain size in Y ( = nPy*nSy*sNy ) */
(PID.TID 0000.0001)   nTiles =    1 ; /* Total no. tiles per process ( = nSx*nSy ) */
(PID.TID 0000.0001)   nProcs = 2880 ; /* Total no. processes ( = nPx*nPy ) */
(PID.TID 0000.0001) nThreads =    1 ; /* Total no. threads per process ( = nTx*nTy ) */
(PID.TID 0000.0001) usingMPI =    T ; /* Flag used to control whether MPI is in use */
(PID.TID 0000.0001)                   /*  note: To execute a program with MPI calls */
(PID.TID 0000.0001)                   /*  it must be launched appropriately e.g     */
(PID.TID 0000.0001)                   /*  "mpirun -np 64 ......"                    */
(PID.TID 0000.0001) useCoupler=    F ;/* Flag used to control communications with   */
(PID.TID 0000.0001)                   /*  other model components, through a coupler */
(PID.TID 0000.0001) debugMode =    T ; /* print debug msg. (sequence of S/R calls)  */
(PID.TID 0000.0001) printMapIncludesZeros=    F ; /* print zeros in Std.Output maps */
(PID.TID 0000.0001) maxLengthPrt1D=   65 /* maxLength of 1D array printed to StdOut */
(PID.TID 0000.0001) 
(PID.TID 0000.0001) ======= Starting MPI parallel Run =========
(PID.TID 0000.0001)  My Processor Name (len:  8 ) = r509i0n6
(PID.TID 0000.0001)  Located at (  0,  0) on processor grid (0:***,0:  0)
(PID.TID 0000.0001)  Origin at  (     1,     1) on global grid (1:172800,1:    60)
(PID.TID 0000.0001)  North neighbor = processor 0000
(PID.TID 0000.0001)  South neighbor = processor 0000
(PID.TID 0000.0001)   East neighbor = processor 0001
(PID.TID 0000.0001)   West neighbor = processor 2879
(PID.TID 0000.0001) // ======================================================
(PID.TID 0000.0001) // Mapping of tiles to threads
(PID.TID 0000.0001) // ======================================================
(PID.TID 0000.0001) // -o- Thread   1, tiles (   1:   1,   1:   1)
(PID.TID 0000.0001) 
(PID.TID 0000.0001) W2_READPARMS: opening data.exch2
(PID.TID 0000.0001)  OPEN_COPY_DATA_FILE: opening file data.exch2
(PID.TID 0000.0001) // =======================================================
(PID.TID 0000.0001) // Parameter file "data.exch2"
(PID.TID 0000.0001) // =======================================================
(PID.TID 0000.0001) ># EXCH2 Package: Wrapper-2 User Choice
(PID.TID 0000.0001) >#--------------------
(PID.TID 0000.0001) >#  preDefTopol   :: pre-defined Topology selector:
(PID.TID 0000.0001) >#                :: = 0 : topology defined from processing "data.exch2";
(PID.TID 0000.0001) >#                :: = 1 : simple, single facet topology;
(PID.TID 0000.0001) >#                :: = 2 : customized topology (w2_set_myown_facets)
(PID.TID 0000.0001) >#                :: = 3 : 6-facet Cube (3 face-dims: nRed, nGreen, nBlue).
(PID.TID 0000.0001) >#  dimsFacets    :: facet pair of dimensions (n1x,n1y, n2x,n2y ...)
(PID.TID 0000.0001) >#  facetEdgeLink :: Face-Edge connectivity map:
(PID.TID 0000.0001) >#    facetEdgeLink(i,j)=XX.1 : face(j)-edge(i) (i=1,2,3,4 <==> N,S,E,W)
(PID.TID 0000.0001) >#    is connected to Northern edge of face "XX" ; similarly,
(PID.TID 0000.0001) >#    = XX.2 : to Southern.E, XX.3 = Eastern.E, XX.4 = Western.E of face "XX"
(PID.TID 0000.0001) >#  blankList     :: List of "blank" tiles
(PID.TID 0000.0001) >#  W2_mapIO      :: global map IO selector (-1 = old type ; 0 = 1 long line in X
(PID.TID 0000.0001) >#                :: 1 = compact, mostly in Y dir)
(PID.TID 0000.0001) >#  W2_printMsg   :: option for information messages printing
(PID.TID 0000.0001) >#                :: <0 : write to log file ; =0 : minimum print ;
(PID.TID 0000.0001) >#                :: =1 : no duplicated print ; =2 : all processes do print
(PID.TID 0000.0001) >#--------------------
(PID.TID 0000.0001) > &W2_EXCH2_PARM01
(PID.TID 0000.0001) >  W2_printMsg= 0,
(PID.TID 0000.0001) >  W2_mapIO   = 1,
(PID.TID 0000.0001) >#
(PID.TID 0000.0001) >#-- 5 facets llc_540 topology (drop facet 6 and its connection):
(PID.TID 0000.0001) >  preDefTopol = 0,
(PID.TID 0000.0001) >  dimsFacets = 1080, 3240, 1080, 3240, 1080, 1080, 3240, 1080, 3240, 1080, 0, 0,
(PID.TID 0000.0001) >  facetEdgeLink(1,1)= 3.4, 0. , 2.4, 5.1,
(PID.TID 0000.0001) >  facetEdgeLink(1,2)= 3.2, 0. , 4.2, 1.3,
(PID.TID 0000.0001) >  facetEdgeLink(1,3)= 5.4, 2.1, 4.4, 1.1,
(PID.TID 0000.0001) >  facetEdgeLink(1,4)= 5.2, 2.3, 0. , 3.3,
(PID.TID 0000.0001) >  facetEdgeLink(1,5)= 1.4, 4.1, 0. , 3.1,
(PID.TID 0000.0001) >  blankList =   1,
(PID.TID 0000.0001) >     2,
(PID.TID 0000.0001) >     3,
(PID.TID 0000.0001) >     4,
(PID.TID 0000.0001) >     5,
(PID.TID 0000.0001) >     6,
(PID.TID 0000.0001) >     7,
(PID.TID 0000.0001) >     8,
(PID.TID 0000.0001) >     9,
(PID.TID 0000.0001) >    10,
(PID.TID 0000.0001) >    11,
(PID.TID 0000.0001) >    12,
(PID.TID 0000.0001) >    13,
(PID.TID 0000.0001) >    14,
(PID.TID 0000.0001) >    15,
(PID.TID 0000.0001) >    16,
(PID.TID 0000.0001) >    17,
(PID.TID 0000.0001) >    18,
(PID.TID 0000.0001) >    19,
(PID.TID 0000.0001) >    20,
(PID.TID 0000.0001) >    21,
(PID.TID 0000.0001) >    22,
(PID.TID 0000.0001) >    23,
(PID.TID 0000.0001) >    24,
(PID.TID 0000.0001) >    25,
(PID.TID 0000.0001) >    26,
(PID.TID 0000.0001) >    27,
(PID.TID 0000.0001) >    28,
(PID.TID 0000.0001) >    29,
(PID.TID 0000.0001) >    30,
(PID.TID 0000.0001) >    31,
(PID.TID 0000.0001) >    32,
(PID.TID 0000.0001) >    33,
(PID.TID 0000.0001) >    34,
(PID.TID 0000.0001) >    35,
(PID.TID 0000.0001) >    36,
(PID.TID 0000.0001) >    37,
(PID.TID 0000.0001) >    38,
(PID.TID 0000.0001) >    39,
(PID.TID 0000.0001) >    40,
(PID.TID 0000.0001) >    41,
(PID.TID 0000.0001) >    42,
(PID.TID 0000.0001) >    43,
(PID.TID 0000.0001) >    44,
(PID.TID 0000.0001) >    45,
(PID.TID 0000.0001) >    46,
(PID.TID 0000.0001) >    47,
(PID.TID 0000.0001) >    48,
(PID.TID 0000.0001) >    49,
(PID.TID 0000.0001) >    50,
(PID.TID 0000.0001) >    51,
(PID.TID 0000.0001) >    52,
(PID.TID 0000.0001) >    53,
(PID.TID 0000.0001) >    54,
(PID.TID 0000.0001) >    55,
(PID.TID 0000.0001) >    56,
(PID.TID 0000.0001) >    57,
(PID.TID 0000.0001) >    58,
(PID.TID 0000.0001) >    59,
(PID.TID 0000.0001) >    60,
(PID.TID 0000.0001) >    61,
(PID.TID 0000.0001) >    62,
(PID.TID 0000.0001) >    63,
(PID.TID 0000.0001) >    64,
(PID.TID 0000.0001) >    65,
(PID.TID 0000.0001) >    66,
(PID.TID 0000.0001) >    67,
(PID.TID 0000.0001) >    68,
(PID.TID 0000.0001) >    69,
(PID.TID 0000.0001) >    70,
(PID.TID 0000.0001) >    71,
(PID.TID 0000.0001) >    72,
(PID.TID 0000.0001) >    73,
(PID.TID 0000.0001) >    74,
(PID.TID 0000.0001) >    75,
(PID.TID 0000.0001) >    76,
(PID.TID 0000.0001) >    77,
(PID.TID 0000.0001) >    78,
(PID.TID 0000.0001) >    79,
(PID.TID 0000.0001) >    80,
(PID.TID 0000.0001) >    81,
(PID.TID 0000.0001) >    82,
(PID.TID 0000.0001) >    83,
(PID.TID 0000.0001) >    84,
(PID.TID 0000.0001) >    85,
(PID.TID 0000.0001) >    86,
(PID.TID 0000.0001) >    87,
(PID.TID 0000.0001) >    88,
(PID.TID 0000.0001) >    89,
(PID.TID 0000.0001) >    90,
(PID.TID 0000.0001) >    91,
(PID.TID 0000.0001) >    92,
(PID.TID 0000.0001) >    93,
(PID.TID 0000.0001) >    94,
(PID.TID 0000.0001) >    95,
(PID.TID 0000.0001) >    96,
(PID.TID 0000.0001) >    97,
(PID.TID 0000.0001) >    98,
(PID.TID 0000.0001) >    99,
(PID.TID 0000.0001) >   100,
(PID.TID 0000.0001) >   101,
(PID.TID 0000.0001) >   102,
(PID.TID 0000.0001) >   103,
(PID.TID 0000.0001) >   104,
(PID.TID 0000.0001) >   105,
(PID.TID 0000.0001) >   106,
(PID.TID 0000.0001) >   107,
(PID.TID 0000.0001) >   108,
(PID.TID 0000.0001) >   109,
(PID.TID 0000.0001) >   110,
(PID.TID 0000.0001) >   111,
(PID.TID 0000.0001) >   112,
(PID.TID 0000.0001) >   113,
(PID.TID 0000.0001) >   114,
(PID.TID 0000.0001) >   115,
(PID.TID 0000.0001) >   116,
(PID.TID 0000.0001) >   117,
(PID.TID 0000.0001) >   118,
(PID.TID 0000.0001) >   119,
(PID.TID 0000.0001) >   120,
(PID.TID 0000.0001) >   121,
(PID.TID 0000.0001) >   122,
(PID.TID 0000.0001) >   123,
(PID.TID 0000.0001) >   124,
(PID.TID 0000.0001) >   125,
(PID.TID 0000.0001) >   126,
(PID.TID 0000.0001) >   128,
(PID.TID 0000.0001) >   129,
(PID.TID 0000.0001) >   130,
(PID.TID 0000.0001) >   131,
(PID.TID 0000.0001) >   132,
(PID.TID 0000.0001) >   133,
(PID.TID 0000.0001) >   134,
(PID.TID 0000.0001) >   135,
(PID.TID 0000.0001) >   136,
(PID.TID 0000.0001) >   137,
(PID.TID 0000.0001) >   138,
(PID.TID 0000.0001) >   139,
(PID.TID 0000.0001) >   140,
(PID.TID 0000.0001) >   141,
(PID.TID 0000.0001) >   142,
(PID.TID 0000.0001) >   143,
(PID.TID 0000.0001) >   144,
(PID.TID 0000.0001) >   147,
(PID.TID 0000.0001) >   148,
(PID.TID 0000.0001) >   149,
(PID.TID 0000.0001) >   150,
(PID.TID 0000.0001) >   151,
(PID.TID 0000.0001) >   152,
(PID.TID 0000.0001) >   153,
(PID.TID 0000.0001) >   154,
(PID.TID 0000.0001) >   155,
(PID.TID 0000.0001) >   156,
(PID.TID 0000.0001) >   157,
(PID.TID 0000.0001) >   158,
(PID.TID 0000.0001) >   159,
(PID.TID 0000.0001) >   160,
(PID.TID 0000.0001) >   161,
(PID.TID 0000.0001) >   162,
(PID.TID 0000.0001) >   166,
(PID.TID 0000.0001) >   167,
(PID.TID 0000.0001) >   168,
(PID.TID 0000.0001) >   169,
(PID.TID 0000.0001) >   170,
(PID.TID 0000.0001) >   171,
(PID.TID 0000.0001) >   172,
(PID.TID 0000.0001) >   173,
(PID.TID 0000.0001) >   174,
(PID.TID 0000.0001) >   175,
(PID.TID 0000.0001) >   176,
(PID.TID 0000.0001) >   177,
(PID.TID 0000.0001) >   178,
(PID.TID 0000.0001) >   179,
(PID.TID 0000.0001) >   180,
(PID.TID 0000.0001) >   186,
(PID.TID 0000.0001) >   187,
(PID.TID 0000.0001) >   188,
(PID.TID 0000.0001) >   189,
(PID.TID 0000.0001) >   190,
(PID.TID 0000.0001) >   191,
(PID.TID 0000.0001) >   192,
(PID.TID 0000.0001) >   193,
(PID.TID 0000.0001) >   194,
(PID.TID 0000.0001) >   195,
(PID.TID 0000.0001) >   196,
(PID.TID 0000.0001) >   197,
(PID.TID 0000.0001) >   198,
(PID.TID 0000.0001) >   215,
(PID.TID 0000.0001) >   216,
(PID.TID 0000.0001) >   234,
(PID.TID 0000.0001) >   481,
(PID.TID 0000.0001) >   498,
(PID.TID 0000.0001) >   499,
(PID.TID 0000.0001) >   500,
(PID.TID 0000.0001) >   516,
(PID.TID 0000.0001) >   517,
(PID.TID 0000.0001) >   518,
(PID.TID 0000.0001) >   534,
(PID.TID 0000.0001) >   535,
(PID.TID 0000.0001) >   536,
(PID.TID 0000.0001) >   552,
(PID.TID 0000.0001) >   553,
(PID.TID 0000.0001) >   554,
(PID.TID 0000.0001) >   555,
(PID.TID 0000.0001) >   570,
(PID.TID 0000.0001) >   571,
(PID.TID 0000.0001) >   572,
(PID.TID 0000.0001) >   573,
(PID.TID 0000.0001) >   587,
(PID.TID 0000.0001) >   588,
(PID.TID 0000.0001) >   589,
(PID.TID 0000.0001) >   590,
(PID.TID 0000.0001) >   591,
(PID.TID 0000.0001) >   605,
(PID.TID 0000.0001) >   606,
(PID.TID 0000.0001) >   607,
(PID.TID 0000.0001) >   608,
(PID.TID 0000.0001) >   609,
(PID.TID 0000.0001) >   610,
(PID.TID 0000.0001) >   622,
(PID.TID 0000.0001) >   623,
(PID.TID 0000.0001) >   624,
(PID.TID 0000.0001) >   625,
(PID.TID 0000.0001) >   626,
(PID.TID 0000.0001) >   627,
(PID.TID 0000.0001) >   628,
(PID.TID 0000.0001) >   629,
(PID.TID 0000.0001) >   636,
(PID.TID 0000.0001) >   637,
(PID.TID 0000.0001) >   638,
(PID.TID 0000.0001) >   639,
(PID.TID 0000.0001) >   640,
(PID.TID 0000.0001) >   641,
(PID.TID 0000.0001) >   642,
(PID.TID 0000.0001) >   643,
(PID.TID 0000.0001) >   644,
(PID.TID 0000.0001) >   645,
(PID.TID 0000.0001) >   654,
(PID.TID 0000.0001) >   655,
(PID.TID 0000.0001) >   656,
(PID.TID 0000.0001) >   657,
(PID.TID 0000.0001) >   658,
(PID.TID 0000.0001) >   659,
(PID.TID 0000.0001) >   660,
(PID.TID 0000.0001) >   661,
(PID.TID 0000.0001) >   662,
(PID.TID 0000.0001) >   663,
(PID.TID 0000.0001) >   672,
(PID.TID 0000.0001) >   673,
(PID.TID 0000.0001) >   674,
(PID.TID 0000.0001) >   675,
(PID.TID 0000.0001) >   676,
(PID.TID 0000.0001) >   677,
(PID.TID 0000.0001) >   678,
(PID.TID 0000.0001) >   679,
(PID.TID 0000.0001) >   680,
(PID.TID 0000.0001) >   683,
(PID.TID 0000.0001) >   684,
(PID.TID 0000.0001) >   690,
(PID.TID 0000.0001) >   691,
(PID.TID 0000.0001) >   692,
(PID.TID 0000.0001) >   693,
(PID.TID 0000.0001) >   694,
(PID.TID 0000.0001) >   695,
(PID.TID 0000.0001) >   696,
(PID.TID 0000.0001) >   697,
(PID.TID 0000.0001) >   698,
(PID.TID 0000.0001) >   701,
(PID.TID 0000.0001) >   709,
(PID.TID 0000.0001) >   710,
(PID.TID 0000.0001) >   711,
(PID.TID 0000.0001) >   712,
(PID.TID 0000.0001) >   713,
(PID.TID 0000.0001) >   718,
(PID.TID 0000.0001) >   719,
(PID.TID 0000.0001) >   728,
(PID.TID 0000.0001) >   736,
(PID.TID 0000.0001) >   737,
(PID.TID 0000.0001) >   738,
(PID.TID 0000.0001) >   754,
(PID.TID 0000.0001) >   755,
(PID.TID 0000.0001) >   763,
(PID.TID 0000.0001) >   773,
(PID.TID 0000.0001) >   787,
(PID.TID 0000.0001) >   801,
(PID.TID 0000.0001) >   802,
(PID.TID 0000.0001) >   804,
(PID.TID 0000.0001) >   805,
(PID.TID 0000.0001) >   820,
(PID.TID 0000.0001) >   821,
(PID.TID 0000.0001) >   822,
(PID.TID 0000.0001) >   823,
(PID.TID 0000.0001) >   824,
(PID.TID 0000.0001) >   825,
(PID.TID 0000.0001) >   826,
(PID.TID 0000.0001) >   840,
(PID.TID 0000.0001) >   841,
(PID.TID 0000.0001) >   842,
(PID.TID 0000.0001) >   843,
(PID.TID 0000.0001) >   844,
(PID.TID 0000.0001) >   845,
(PID.TID 0000.0001) >   846,
(PID.TID 0000.0001) >   860,
(PID.TID 0000.0001) >   861,
(PID.TID 0000.0001) >   862,
(PID.TID 0000.0001) >   863,
(PID.TID 0000.0001) >   864,
(PID.TID 0000.0001) >   879,
(PID.TID 0000.0001) >   880,
(PID.TID 0000.0001) >   881,
(PID.TID 0000.0001) >   882,
(PID.TID 0000.0001) >   892,
(PID.TID 0000.0001) >   893,
(PID.TID 0000.0001) >   897,
(PID.TID 0000.0001) >   898,
(PID.TID 0000.0001) >   899,
(PID.TID 0000.0001) >   900,
(PID.TID 0000.0001) >   911,
(PID.TID 0000.0001) >   914,
(PID.TID 0000.0001) >   917,
(PID.TID 0000.0001) >   918,
(PID.TID 0000.0001) >   935,
(PID.TID 0000.0001) >   936,
(PID.TID 0000.0001) >   949,
(PID.TID 0000.0001) >   954,
(PID.TID 0000.0001) >   955,
(PID.TID 0000.0001) >   973,
(PID.TID 0000.0001) >   974,
(PID.TID 0000.0001) >   975,
(PID.TID 0000.0001) >   976,
(PID.TID 0000.0001) >   977,
(PID.TID 0000.0001) >   978,
(PID.TID 0000.0001) >   979,
(PID.TID 0000.0001) >   980,
(PID.TID 0000.0001) >   981,
(PID.TID 0000.0001) >   982,
(PID.TID 0000.0001) >   983,
(PID.TID 0000.0001) >   984,
(PID.TID 0000.0001) >   985,
(PID.TID 0000.0001) >   986,
(PID.TID 0000.0001) >   987,
(PID.TID 0000.0001) >   988,
(PID.TID 0000.0001) >   989,
(PID.TID 0000.0001) >   990,
(PID.TID 0000.0001) >   991,
(PID.TID 0000.0001) >   992,
(PID.TID 0000.0001) >   993,
(PID.TID 0000.0001) >   994,
(PID.TID 0000.0001) >   995,
(PID.TID 0000.0001) >   996,
(PID.TID 0000.0001) >   997,
(PID.TID 0000.0001) >   998,
(PID.TID 0000.0001) >   999,
(PID.TID 0000.0001) >  1000,
(PID.TID 0000.0001) >  1001,
(PID.TID 0000.0001) >  1002,
(PID.TID 0000.0001) >  1003,
(PID.TID 0000.0001) >  1004,
(PID.TID 0000.0001) >  1005,
(PID.TID 0000.0001) >  1006,
(PID.TID 0000.0001) >  1007,
(PID.TID 0000.0001) >  1008,
(PID.TID 0000.0001) >  1009,
(PID.TID 0000.0001) >  1010,
(PID.TID 0000.0001) >  1011,
(PID.TID 0000.0001) >  1012,
(PID.TID 0000.0001) >  1013,
(PID.TID 0000.0001) >  1014,
(PID.TID 0000.0001) >  1015,
(PID.TID 0000.0001) >  1016,
(PID.TID 0000.0001) >  1017,
(PID.TID 0000.0001) >  1018,
(PID.TID 0000.0001) >  1019,
(PID.TID 0000.0001) >  1020,
(PID.TID 0000.0001) >  1021,
(PID.TID 0000.0001) >  1022,
(PID.TID 0000.0001) >  1023,
(PID.TID 0000.0001) >  1024,
(PID.TID 0000.0001) >  1025,
(PID.TID 0000.0001) >  1026,
(PID.TID 0000.0001) >  1027,
(PID.TID 0000.0001) >  1028,
(PID.TID 0000.0001) >  1029,
(PID.TID 0000.0001) >  1030,
(PID.TID 0000.0001) >  1031,
(PID.TID 0000.0001) >  1032,
(PID.TID 0000.0001) >  1033,
(PID.TID 0000.0001) >  1034,
(PID.TID 0000.0001) >  1035,
(PID.TID 0000.0001) >  1036,
(PID.TID 0000.0001) >  1037,
(PID.TID 0000.0001) >  1038,
(PID.TID 0000.0001) >  1039,
(PID.TID 0000.0001) >  1040,
(PID.TID 0000.0001) >  1041,
(PID.TID 0000.0001) >  1042,
(PID.TID 0000.0001) >  1043,
(PID.TID 0000.0001) >  1044,
(PID.TID 0000.0001) >  1045,
(PID.TID 0000.0001) >  1046,
(PID.TID 0000.0001) >  1047,
(PID.TID 0000.0001) >  1048,
(PID.TID 0000.0001) >  1049,
(PID.TID 0000.0001) >  1050,
(PID.TID 0000.0001) >  1051,
(PID.TID 0000.0001) >  1052,
(PID.TID 0000.0001) >  1053,
(PID.TID 0000.0001) >  1054,
(PID.TID 0000.0001) >  1055,
(PID.TID 0000.0001) >  1056,
(PID.TID 0000.0001) >  1057,
(PID.TID 0000.0001) >  1058,
(PID.TID 0000.0001) >  1059,
(PID.TID 0000.0001) >  1060,
(PID.TID 0000.0001) >  1061,
(PID.TID 0000.0001) >  1062,
(PID.TID 0000.0001) >  1063,
(PID.TID 0000.0001) >  1064,
(PID.TID 0000.0001) >  1065,
(PID.TID 0000.0001) >  1066,
(PID.TID 0000.0001) >  1067,
(PID.TID 0000.0001) >  1068,
(PID.TID 0000.0001) >  1069,
(PID.TID 0000.0001) >  1070,
(PID.TID 0000.0001) >  1071,
(PID.TID 0000.0001) >  1072,
(PID.TID 0000.0001) >  1073,
(PID.TID 0000.0001) >  1074,
(PID.TID 0000.0001) >  1075,
(PID.TID 0000.0001) >  1076,
(PID.TID 0000.0001) >  1077,
(PID.TID 0000.0001) >  1078,
(PID.TID 0000.0001) >  1079,
(PID.TID 0000.0001) >  1080,
(PID.TID 0000.0001) >  1081,
(PID.TID 0000.0001) >  1082,
(PID.TID 0000.0001) >  1083,
(PID.TID 0000.0001) >  1084,
(PID.TID 0000.0001) >  1085,
(PID.TID 0000.0001) >  1086,
(PID.TID 0000.0001) >  1087,
(PID.TID 0000.0001) >  1088,
(PID.TID 0000.0001) >  1089,
(PID.TID 0000.0001) >  1090,
(PID.TID 0000.0001) >  1091,
(PID.TID 0000.0001) >  1092,
(PID.TID 0000.0001) >  1093,
(PID.TID 0000.0001) >  1094,
(PID.TID 0000.0001) >  1095,
(PID.TID 0000.0001) >  1096,
(PID.TID 0000.0001) >  1097,
(PID.TID 0000.0001) >  1098,
(PID.TID 0000.0001) >  1099,
(PID.TID 0000.0001) >  1100,
(PID.TID 0000.0001) >  1101,
(PID.TID 0000.0001) >  1102,
(PID.TID 0000.0001) >  1103,
(PID.TID 0000.0001) >  1104,
(PID.TID 0000.0001) >  1105,
(PID.TID 0000.0001) >  1106,
(PID.TID 0000.0001) >  1107,
(PID.TID 0000.0001) >  1108,
(PID.TID 0000.0001) >  1109,
(PID.TID 0000.0001) >  1110,
(PID.TID 0000.0001) >  1111,
(PID.TID 0000.0001) >  1112,
(PID.TID 0000.0001) >  1113,
(PID.TID 0000.0001) >  1114,
(PID.TID 0000.0001) >  1115,
(PID.TID 0000.0001) >  1116,
(PID.TID 0000.0001) >  1117,
(PID.TID 0000.0001) >  1118,
(PID.TID 0000.0001) >  1119,
(PID.TID 0000.0001) >  1120,
(PID.TID 0000.0001) >  1121,
(PID.TID 0000.0001) >  1122,
(PID.TID 0000.0001) >  1123,
(PID.TID 0000.0001) >  1124,
(PID.TID 0000.0001) >  1125,
(PID.TID 0000.0001) >  1126,
(PID.TID 0000.0001) >  1127,
(PID.TID 0000.0001) >  1128,
(PID.TID 0000.0001) >  1129,
(PID.TID 0000.0001) >  1130,
(PID.TID 0000.0001) >  1131,
(PID.TID 0000.0001) >  1132,
(PID.TID 0000.0001) >  1133,
(PID.TID 0000.0001) >  1134,
(PID.TID 0000.0001) >  1135,
(PID.TID 0000.0001) >  1136,
(PID.TID 0000.0001) >  1137,
(PID.TID 0000.0001) >  1138,
(PID.TID 0000.0001) >  1139,
(PID.TID 0000.0001) >  1140,
(PID.TID 0000.0001) >  1141,
(PID.TID 0000.0001) >  1142,
(PID.TID 0000.0001) >  1143,
(PID.TID 0000.0001) >  1144,
(PID.TID 0000.0001) >  1145,
(PID.TID 0000.0001) >  1146,
(PID.TID 0000.0001) >  1147,
(PID.TID 0000.0001) >  1148,
(PID.TID 0000.0001) >  1149,
(PID.TID 0000.0001) >  1150,
(PID.TID 0000.0001) >  1151,
(PID.TID 0000.0001) >  1152,
(PID.TID 0000.0001) >  1153,
(PID.TID 0000.0001) >  1154,
(PID.TID 0000.0001) >  1155,
(PID.TID 0000.0001) >  1157,
(PID.TID 0000.0001) >  1158,
(PID.TID 0000.0001) >  1159,
(PID.TID 0000.0001) >  1160,
(PID.TID 0000.0001) >  1161,
(PID.TID 0000.0001) >  1162,
(PID.TID 0000.0001) >  1163,
(PID.TID 0000.0001) >  1164,
(PID.TID 0000.0001) >  1165,
(PID.TID 0000.0001) >  1166,
(PID.TID 0000.0001) >  1167,
(PID.TID 0000.0001) >  1168,
(PID.TID 0000.0001) >  1169,
(PID.TID 0000.0001) >  1170,
(PID.TID 0000.0001) >  1171,
(PID.TID 0000.0001) >  1172,
(PID.TID 0000.0001) >  1173,
(PID.TID 0000.0001) >  1176,
(PID.TID 0000.0001) >  1177,
(PID.TID 0000.0001) >  1178,
(PID.TID 0000.0001) >  1179,
(PID.TID 0000.0001) >  1180,
(PID.TID 0000.0001) >  1181,
(PID.TID 0000.0001) >  1182,
(PID.TID 0000.0001) >  1183,
(PID.TID 0000.0001) >  1184,
(PID.TID 0000.0001) >  1185,
(PID.TID 0000.0001) >  1186,
(PID.TID 0000.0001) >  1187,
(PID.TID 0000.0001) >  1188,
(PID.TID 0000.0001) >  1189,
(PID.TID 0000.0001) >  1190,
(PID.TID 0000.0001) >  1191,
(PID.TID 0000.0001) >  1195,
(PID.TID 0000.0001) >  1196,
(PID.TID 0000.0001) >  1197,
(PID.TID 0000.0001) >  1198,
(PID.TID 0000.0001) >  1199,
(PID.TID 0000.0001) >  1200,
(PID.TID 0000.0001) >  1201,
(PID.TID 0000.0001) >  1202,
(PID.TID 0000.0001) >  1203,
(PID.TID 0000.0001) >  1204,
(PID.TID 0000.0001) >  1205,
(PID.TID 0000.0001) >  1206,
(PID.TID 0000.0001) >  1454,
(PID.TID 0000.0001) >  1455,
(PID.TID 0000.0001) >  1456,
(PID.TID 0000.0001) >  1457,
(PID.TID 0000.0001) >  1458,
(PID.TID 0000.0001) >  1472,
(PID.TID 0000.0001) >  1473,
(PID.TID 0000.0001) >  1474,
(PID.TID 0000.0001) >  1475,
(PID.TID 0000.0001) >  1476,
(PID.TID 0000.0001) >  1492,
(PID.TID 0000.0001) >  1493,
(PID.TID 0000.0001) >  1494,
(PID.TID 0000.0001) >  1644,
(PID.TID 0000.0001) >  1648,
(PID.TID 0000.0001) >  1661,
(PID.TID 0000.0001) >  1662,
(PID.TID 0000.0001) >  1663,
(PID.TID 0000.0001) >  1665,
(PID.TID 0000.0001) >  1666,
(PID.TID 0000.0001) >  1667,
(PID.TID 0000.0001) >  1668,
(PID.TID 0000.0001) >  1677,
(PID.TID 0000.0001) >  1678,
(PID.TID 0000.0001) >  1679,
(PID.TID 0000.0001) >  1680,
(PID.TID 0000.0001) >  1681,
(PID.TID 0000.0001) >  1682,
(PID.TID 0000.0001) >  1683,
(PID.TID 0000.0001) >  1684,
(PID.TID 0000.0001) >  1685,
(PID.TID 0000.0001) >  1686,
(PID.TID 0000.0001) >  1687,
(PID.TID 0000.0001) >  1693,
(PID.TID 0000.0001) >  1694,
(PID.TID 0000.0001) >  1695,
(PID.TID 0000.0001) >  1696,
(PID.TID 0000.0001) >  1697,
(PID.TID 0000.0001) >  1698,
(PID.TID 0000.0001) >  1699,
(PID.TID 0000.0001) >  1700,
(PID.TID 0000.0001) >  1701,
(PID.TID 0000.0001) >  1702,
(PID.TID 0000.0001) >  1703,
(PID.TID 0000.0001) >  1704,
(PID.TID 0000.0001) >  1705,
(PID.TID 0000.0001) >  1712,
(PID.TID 0000.0001) >  1713,
(PID.TID 0000.0001) >  1714,
(PID.TID 0000.0001) >  1715,
(PID.TID 0000.0001) >  1716,
(PID.TID 0000.0001) >  1717,
(PID.TID 0000.0001) >  1718,
(PID.TID 0000.0001) >  1719,
(PID.TID 0000.0001) >  1720,
(PID.TID 0000.0001) >  1721,
(PID.TID 0000.0001) >  1722,
(PID.TID 0000.0001) >  1723,
(PID.TID 0000.0001) >  1731,
(PID.TID 0000.0001) >  1732,
(PID.TID 0000.0001) >  1733,
(PID.TID 0000.0001) >  1734,
(PID.TID 0000.0001) >  1735,
(PID.TID 0000.0001) >  1736,
(PID.TID 0000.0001) >  1737,
(PID.TID 0000.0001) >  1738,
(PID.TID 0000.0001) >  1739,
(PID.TID 0000.0001) >  1740,
(PID.TID 0000.0001) >  1741,
(PID.TID 0000.0001) >  1749,
(PID.TID 0000.0001) >  1750,
(PID.TID 0000.0001) >  1751,
(PID.TID 0000.0001) >  1752,
(PID.TID 0000.0001) >  1753,
(PID.TID 0000.0001) >  1755,
(PID.TID 0000.0001) >  1756,
(PID.TID 0000.0001) >  1757,
(PID.TID 0000.0001) >  1758,
(PID.TID 0000.0001) >  1759,
(PID.TID 0000.0001) >  1760,
(PID.TID 0000.0001) >  1761,
(PID.TID 0000.0001) >  1766,
(PID.TID 0000.0001) >  1767,
(PID.TID 0000.0001) >  1768,
(PID.TID 0000.0001) >  1769,
(PID.TID 0000.0001) >  1770,
(PID.TID 0000.0001) >  1771,
(PID.TID 0000.0001) >  1772,
(PID.TID 0000.0001) >  1773,
(PID.TID 0000.0001) >  1774,
(PID.TID 0000.0001) >  1775,
(PID.TID 0000.0001) >  1776,
(PID.TID 0000.0001) >  1777,
(PID.TID 0000.0001) >  1778,
(PID.TID 0000.0001) >  1779,
(PID.TID 0000.0001) >  1780,
(PID.TID 0000.0001) >  1784,
(PID.TID 0000.0001) >  1785,
(PID.TID 0000.0001) >  1786,
(PID.TID 0000.0001) >  1787,
(PID.TID 0000.0001) >  1788,
(PID.TID 0000.0001) >  1789,
(PID.TID 0000.0001) >  1790,
(PID.TID 0000.0001) >  1791,
(PID.TID 0000.0001) >  1792,
(PID.TID 0000.0001) >  1793,
(PID.TID 0000.0001) >  1794,
(PID.TID 0000.0001) >  1795,
(PID.TID 0000.0001) >  1796,
(PID.TID 0000.0001) >  1797,
(PID.TID 0000.0001) >  1798,
(PID.TID 0000.0001) >  1799,
(PID.TID 0000.0001) >  1801,
(PID.TID 0000.0001) >  1802,
(PID.TID 0000.0001) >  1803,
(PID.TID 0000.0001) >  1804,
(PID.TID 0000.0001) >  1805,
(PID.TID 0000.0001) >  1806,
(PID.TID 0000.0001) >  1807,
(PID.TID 0000.0001) >  1808,
(PID.TID 0000.0001) >  1809,
(PID.TID 0000.0001) >  1810,
(PID.TID 0000.0001) >  1811,
(PID.TID 0000.0001) >  1812,
(PID.TID 0000.0001) >  1813,
(PID.TID 0000.0001) >  1814,
(PID.TID 0000.0001) >  1815,
(PID.TID 0000.0001) >  1816,
(PID.TID 0000.0001) >  1819,
(PID.TID 0000.0001) >  1820,
(PID.TID 0000.0001) >  1821,
(PID.TID 0000.0001) >  1822,
(PID.TID 0000.0001) >  1823,
(PID.TID 0000.0001) >  1824,
(PID.TID 0000.0001) >  1825,
(PID.TID 0000.0001) >  1826,
(PID.TID 0000.0001) >  1827,
(PID.TID 0000.0001) >  1828,
(PID.TID 0000.0001) >  1829,
(PID.TID 0000.0001) >  1830,
(PID.TID 0000.0001) >  1831,
(PID.TID 0000.0001) >  1832,
(PID.TID 0000.0001) >  1833,
(PID.TID 0000.0001) >  1834,
(PID.TID 0000.0001) >  1837,
(PID.TID 0000.0001) >  1838,
(PID.TID 0000.0001) >  1839,
(PID.TID 0000.0001) >  1840,
(PID.TID 0000.0001) >  1841,
(PID.TID 0000.0001) >  1842,
(PID.TID 0000.0001) >  1843,
(PID.TID 0000.0001) >  1844,
(PID.TID 0000.0001) >  1845,
(PID.TID 0000.0001) >  1846,
(PID.TID 0000.0001) >  1847,
(PID.TID 0000.0001) >  1848,
(PID.TID 0000.0001) >  1849,
(PID.TID 0000.0001) >  1850,
(PID.TID 0000.0001) >  1851,
(PID.TID 0000.0001) >  1852,
(PID.TID 0000.0001) >  1853,
(PID.TID 0000.0001) >  1855,
(PID.TID 0000.0001) >  1856,
(PID.TID 0000.0001) >  1857,
(PID.TID 0000.0001) >  1858,
(PID.TID 0000.0001) >  1859,
(PID.TID 0000.0001) >  1860,
(PID.TID 0000.0001) >  1861,
(PID.TID 0000.0001) >  1862,
(PID.TID 0000.0001) >  1863,
(PID.TID 0000.0001) >  1864,
(PID.TID 0000.0001) >  1865,
(PID.TID 0000.0001) >  1866,
(PID.TID 0000.0001) >  1867,
(PID.TID 0000.0001) >  1868,
(PID.TID 0000.0001) >  1869,
(PID.TID 0000.0001) >  1870,
(PID.TID 0000.0001) >  1871,
(PID.TID 0000.0001) >  1872,
(PID.TID 0000.0001) >  1873,
(PID.TID 0000.0001) >  1874,
(PID.TID 0000.0001) >  1875,
(PID.TID 0000.0001) >  1876,
(PID.TID 0000.0001) >  1877,
(PID.TID 0000.0001) >  1878,
(PID.TID 0000.0001) >  1879,
(PID.TID 0000.0001) >  1880,
(PID.TID 0000.0001) >  1881,
(PID.TID 0000.0001) >  1882,
(PID.TID 0000.0001) >  1883,
(PID.TID 0000.0001) >  1884,
(PID.TID 0000.0001) >  1885,
(PID.TID 0000.0001) >  1886,
(PID.TID 0000.0001) >  1887,
(PID.TID 0000.0001) >  1888,
(PID.TID 0000.0001) >  1889,
(PID.TID 0000.0001) >  1890,
(PID.TID 0000.0001) >  1891,
(PID.TID 0000.0001) >  1892,
(PID.TID 0000.0001) >  1893,
(PID.TID 0000.0001) >  1894,
(PID.TID 0000.0001) >  1895,
(PID.TID 0000.0001) >  1896,
(PID.TID 0000.0001) >  1897,
(PID.TID 0000.0001) >  1898,
(PID.TID 0000.0001) >  1899,
(PID.TID 0000.0001) >  1900,
(PID.TID 0000.0001) >  1901,
(PID.TID 0000.0001) >  1902,
(PID.TID 0000.0001) >  1903,
(PID.TID 0000.0001) >  1904,
(PID.TID 0000.0001) >  1905,
(PID.TID 0000.0001) >  1906,
(PID.TID 0000.0001) >  1907,
(PID.TID 0000.0001) >  1908,
(PID.TID 0000.0001) >  1909,
(PID.TID 0000.0001) >  1910,
(PID.TID 0000.0001) >  1911,
(PID.TID 0000.0001) >  1912,
(PID.TID 0000.0001) >  1915,
(PID.TID 0000.0001) >  1916,
(PID.TID 0000.0001) >  1917,
(PID.TID 0000.0001) >  1918,
(PID.TID 0000.0001) >  1919,
(PID.TID 0000.0001) >  1920,
(PID.TID 0000.0001) >  1921,
(PID.TID 0000.0001) >  1922,
(PID.TID 0000.0001) >  1923,
(PID.TID 0000.0001) >  1924,
(PID.TID 0000.0001) >  1925,
(PID.TID 0000.0001) >  1926,
(PID.TID 0000.0001) >  1927,
(PID.TID 0000.0001) >  1928,
(PID.TID 0000.0001) >  1933,
(PID.TID 0000.0001) >  1934,
(PID.TID 0000.0001) >  1935,
(PID.TID 0000.0001) >  1936,
(PID.TID 0000.0001) >  1937,
(PID.TID 0000.0001) >  1938,
(PID.TID 0000.0001) >  1939,
(PID.TID 0000.0001) >  1940,
(PID.TID 0000.0001) >  1941,
(PID.TID 0000.0001) >  1942,
(PID.TID 0000.0001) >  1943,
(PID.TID 0000.0001) >  1944,
(PID.TID 0000.0001) >  1953,
(PID.TID 0000.0001) >  1954,
(PID.TID 0000.0001) >  1958,
(PID.TID 0000.0001) >  1960,
(PID.TID 0000.0001) >  1961,
(PID.TID 0000.0001) >  1962,
(PID.TID 0000.0001) >  1979,
(PID.TID 0000.0001) >  1980,
(PID.TID 0000.0001) >  1998,
(PID.TID 0000.0001) >  2165,
(PID.TID 0000.0001) >  2166,
(PID.TID 0000.0001) >  2181,
(PID.TID 0000.0001) >  2182,
(PID.TID 0000.0001) >  2183,
(PID.TID 0000.0001) >  2184,
(PID.TID 0000.0001) >  2185,
(PID.TID 0000.0001) >  2199,
(PID.TID 0000.0001) >  2200,
(PID.TID 0000.0001) >  2201,
(PID.TID 0000.0001) >  2202,
(PID.TID 0000.0001) >  2203,
(PID.TID 0000.0001) >  2216,
(PID.TID 0000.0001) >  2217,
(PID.TID 0000.0001) >  2218,
(PID.TID 0000.0001) >  2219,
(PID.TID 0000.0001) >  2233,
(PID.TID 0000.0001) >  2234,
(PID.TID 0000.0001) >  2235,
(PID.TID 0000.0001) >  2236,
(PID.TID 0000.0001) >  2251,
(PID.TID 0000.0001) >  2252,
(PID.TID 0000.0001) >  2253,
(PID.TID 0000.0001) >  2268,
(PID.TID 0000.0001) >  2269,
(PID.TID 0000.0001) >  2270,
(PID.TID 0000.0001) >  2271,
(PID.TID 0000.0001) >  2272,
(PID.TID 0000.0001) >  2295,
(PID.TID 0000.0001) >  2296,
(PID.TID 0000.0001) >  2297,
(PID.TID 0000.0001) >  2311,
(PID.TID 0000.0001) >  2312,
(PID.TID 0000.0001) >  2313,
(PID.TID 0000.0001) >  2314,
(PID.TID 0000.0001) >  2315,
(PID.TID 0000.0001) >  2316,
(PID.TID 0000.0001) >  2317,
(PID.TID 0000.0001) >  2318,
(PID.TID 0000.0001) >  2319,
(PID.TID 0000.0001) >  2320,
(PID.TID 0000.0001) >  2321,
(PID.TID 0000.0001) >  2322,
(PID.TID 0000.0001) >  2323,
(PID.TID 0000.0001) >  2324,
(PID.TID 0000.0001) >  2325,
(PID.TID 0000.0001) >  2326,
(PID.TID 0000.0001) >  2350,
(PID.TID 0000.0001) >  2365,
(PID.TID 0000.0001) >  2366,
(PID.TID 0000.0001) >  2367,
(PID.TID 0000.0001) >  2368,
(PID.TID 0000.0001) >  2369,
(PID.TID 0000.0001) >  2370,
(PID.TID 0000.0001) >  2371,
(PID.TID 0000.0001) >  2372,
(PID.TID 0000.0001) >  2373,
(PID.TID 0000.0001) >  2374,
(PID.TID 0000.0001) >  2375,
(PID.TID 0000.0001) >  2376,
(PID.TID 0000.0001) >  2377,
(PID.TID 0000.0001) >  2378,
(PID.TID 0000.0001) >  2379,
(PID.TID 0000.0001) >  2380,
(PID.TID 0000.0001) >  2419,
(PID.TID 0000.0001) >  2420,
(PID.TID 0000.0001) >  2421,
(PID.TID 0000.0001) >  2422,
(PID.TID 0000.0001) >  2423,
(PID.TID 0000.0001) >  2424,
(PID.TID 0000.0001) >  2425,
(PID.TID 0000.0001) >  2426,
(PID.TID 0000.0001) >  2427,
(PID.TID 0000.0001) >  2428,
(PID.TID 0000.0001) >  2429,
(PID.TID 0000.0001) >  2430,
(PID.TID 0000.0001) >  2431,
(PID.TID 0000.0001) >  2432,
(PID.TID 0000.0001) >  2433,
(PID.TID 0000.0001) >  2434,
(PID.TID 0000.0001) >  2474,
(PID.TID 0000.0001) >  2475,
(PID.TID 0000.0001) >  2476,
(PID.TID 0000.0001) >  2478,
(PID.TID 0000.0001) >  2479,
(PID.TID 0000.0001) >  2480,
(PID.TID 0000.0001) >  2481,
(PID.TID 0000.0001) >  2482,
(PID.TID 0000.0001) >  2483,
(PID.TID 0000.0001) >  2484,
(PID.TID 0000.0001) >  2486,
(PID.TID 0000.0001) >  2487,
(PID.TID 0000.0001) >  2531,
(PID.TID 0000.0001) >  2532,
(PID.TID 0000.0001) >  2533,
(PID.TID 0000.0001) >  2534,
(PID.TID 0000.0001) >  2535,
(PID.TID 0000.0001) >  2536,
(PID.TID 0000.0001) >  2537,
(PID.TID 0000.0001) >  2538,
(PID.TID 0000.0001) >  2541,
(PID.TID 0000.0001) >  2542,
(PID.TID 0000.0001) >  2585,
(PID.TID 0000.0001) >  2586,
(PID.TID 0000.0001) >  2587,
(PID.TID 0000.0001) >  2588,
(PID.TID 0000.0001) >  2589,
(PID.TID 0000.0001) >  2590,
(PID.TID 0000.0001) >  2591,
(PID.TID 0000.0001) >  2592,
(PID.TID 0000.0001) >  2595,
(PID.TID 0000.0001) >  2639,
(PID.TID 0000.0001) >  2640,
(PID.TID 0000.0001) >  2641,
(PID.TID 0000.0001) >  2642,
(PID.TID 0000.0001) >  2643,
(PID.TID 0000.0001) >  2644,
(PID.TID 0000.0001) >  2645,
(PID.TID 0000.0001) >  2646,
(PID.TID 0000.0001) >  2694,
(PID.TID 0000.0001) >  2695,
(PID.TID 0000.0001) >  2696,
(PID.TID 0000.0001) >  2697,
(PID.TID 0000.0001) >  2698,
(PID.TID 0000.0001) >  2699,
(PID.TID 0000.0001) >  2700,
(PID.TID 0000.0001) >  2748,
(PID.TID 0000.0001) >  2749,
(PID.TID 0000.0001) >  2750,
(PID.TID 0000.0001) >  2751,
(PID.TID 0000.0001) >  2752,
(PID.TID 0000.0001) >  2753,
(PID.TID 0000.0001) >  2754,
(PID.TID 0000.0001) >  2802,
(PID.TID 0000.0001) >  2803,
(PID.TID 0000.0001) >  2804,
(PID.TID 0000.0001) >  2805,
(PID.TID 0000.0001) >  2806,
(PID.TID 0000.0001) >  2807,
(PID.TID 0000.0001) >  2808,
(PID.TID 0000.0001) >  2856,
(PID.TID 0000.0001) >  2857,
(PID.TID 0000.0001) >  2858,
(PID.TID 0000.0001) >  2859,
(PID.TID 0000.0001) >  2860,
(PID.TID 0000.0001) >  2861,
(PID.TID 0000.0001) >  2862,
(PID.TID 0000.0001) >  2864,
(PID.TID 0000.0001) >  2867,
(PID.TID 0000.0001) >  2910,
(PID.TID 0000.0001) >  2911,
(PID.TID 0000.0001) >  2912,
(PID.TID 0000.0001) >  2913,
(PID.TID 0000.0001) >  2914,
(PID.TID 0000.0001) >  2915,
(PID.TID 0000.0001) >  2916,
(PID.TID 0000.0001) >  2918,
(PID.TID 0000.0001) >  2919,
(PID.TID 0000.0001) >  2920,
(PID.TID 0000.0001) >  2964,
(PID.TID 0000.0001) >  2965,
(PID.TID 0000.0001) >  2966,
(PID.TID 0000.0001) >  2967,
(PID.TID 0000.0001) >  2968,
(PID.TID 0000.0001) >  2969,
(PID.TID 0000.0001) >  2970,
(PID.TID 0000.0001) >  2972,
(PID.TID 0000.0001) >  2973,
(PID.TID 0000.0001) >  2974,
(PID.TID 0000.0001) >  3017,
(PID.TID 0000.0001) >  3018,
(PID.TID 0000.0001) >  3019,
(PID.TID 0000.0001) >  3020,
(PID.TID 0000.0001) >  3021,
(PID.TID 0000.0001) >  3022,
(PID.TID 0000.0001) >  3023,
(PID.TID 0000.0001) >  3024,
(PID.TID 0000.0001) >  3026,
(PID.TID 0000.0001) >  3027,
(PID.TID 0000.0001) >  3028,
(PID.TID 0000.0001) >  3071,
(PID.TID 0000.0001) >  3072,
(PID.TID 0000.0001) >  3073,
(PID.TID 0000.0001) >  3074,
(PID.TID 0000.0001) >  3075,
(PID.TID 0000.0001) >  3076,
(PID.TID 0000.0001) >  3077,
(PID.TID 0000.0001) >  3078,
(PID.TID 0000.0001) >  3080,
(PID.TID 0000.0001) >  3081,
(PID.TID 0000.0001) >  3082,
(PID.TID 0000.0001) >  3125,
(PID.TID 0000.0001) >  3126,
(PID.TID 0000.0001) >  3127,
(PID.TID 0000.0001) >  3128,
(PID.TID 0000.0001) >  3129,
(PID.TID 0000.0001) >  3130,
(PID.TID 0000.0001) >  3131,
(PID.TID 0000.0001) >  3132,
(PID.TID 0000.0001) >  3133,
(PID.TID 0000.0001) >  3134,
(PID.TID 0000.0001) >  3135,
(PID.TID 0000.0001) >  3136,
(PID.TID 0000.0001) >  3137,
(PID.TID 0000.0001) >  3179,
(PID.TID 0000.0001) >  3180,
(PID.TID 0000.0001) >  3181,
(PID.TID 0000.0001) >  3182,
(PID.TID 0000.0001) >  3183,
(PID.TID 0000.0001) >  3184,
(PID.TID 0000.0001) >  3185,
(PID.TID 0000.0001) >  3186,
(PID.TID 0000.0001) >  3187,
(PID.TID 0000.0001) >  3188,
(PID.TID 0000.0001) >  3189,
(PID.TID 0000.0001) >  3190,
(PID.TID 0000.0001) >  3191,
(PID.TID 0000.0001) >  3192,
(PID.TID 0000.0001) >  3233,
(PID.TID 0000.0001) >  3234,
(PID.TID 0000.0001) >  3235,
(PID.TID 0000.0001) >  3236,
(PID.TID 0000.0001) >  3237,
(PID.TID 0000.0001) >  3238,
(PID.TID 0000.0001) >  3239,
(PID.TID 0000.0001) >  3240,
(PID.TID 0000.0001) >  3241,
(PID.TID 0000.0001) >  3242,
(PID.TID 0000.0001) >  3243,
(PID.TID 0000.0001) >  3244,
(PID.TID 0000.0001) >  3245,
(PID.TID 0000.0001) >  3246,
(PID.TID 0000.0001) >  3247,
(PID.TID 0000.0001) >  3286,
(PID.TID 0000.0001) >  3287,
(PID.TID 0000.0001) >  3288,
(PID.TID 0000.0001) >  3289,
(PID.TID 0000.0001) >  3290,
(PID.TID 0000.0001) >  3291,
(PID.TID 0000.0001) >  3292,
(PID.TID 0000.0001) >  3293,
(PID.TID 0000.0001) >  3294,
(PID.TID 0000.0001) >  3295,
(PID.TID 0000.0001) >  3296,
(PID.TID 0000.0001) >  3297,
(PID.TID 0000.0001) >  3298,
(PID.TID 0000.0001) >  3299,
(PID.TID 0000.0001) >  3300,
(PID.TID 0000.0001) >  3301,
(PID.TID 0000.0001) >  3302,
(PID.TID 0000.0001) >  3305,
(PID.TID 0000.0001) >  3306,
(PID.TID 0000.0001) >  3340,
(PID.TID 0000.0001) >  3341,
(PID.TID 0000.0001) >  3342,
(PID.TID 0000.0001) >  3343,
(PID.TID 0000.0001) >  3344,
(PID.TID 0000.0001) >  3345,
(PID.TID 0000.0001) >  3346,
(PID.TID 0000.0001) >  3347,
(PID.TID 0000.0001) >  3348,
(PID.TID 0000.0001) >  3350,
(PID.TID 0000.0001) >  3351,
(PID.TID 0000.0001) >  3352,
(PID.TID 0000.0001) >  3353,
(PID.TID 0000.0001) >  3354,
(PID.TID 0000.0001) >  3355,
(PID.TID 0000.0001) >  3356,
(PID.TID 0000.0001) >  3357,
(PID.TID 0000.0001) >  3358,
(PID.TID 0000.0001) >  3359,
(PID.TID 0000.0001) >  3360,
(PID.TID 0000.0001) >  3395,
(PID.TID 0000.0001) >  3396,
(PID.TID 0000.0001) >  3397,
(PID.TID 0000.0001) >  3398,
(PID.TID 0000.0001) >  3399,
(PID.TID 0000.0001) >  3400,
(PID.TID 0000.0001) >  3401,
(PID.TID 0000.0001) >  3402,
(PID.TID 0000.0001) >  3405,
(PID.TID 0000.0001) >  3406,
(PID.TID 0000.0001) >  3407,
(PID.TID 0000.0001) >  3408,
(PID.TID 0000.0001) >  3409,
(PID.TID 0000.0001) >  3410,
(PID.TID 0000.0001) >  3411,
(PID.TID 0000.0001) >  3412,
(PID.TID 0000.0001) >  3413,
(PID.TID 0000.0001) >  3414,
(PID.TID 0000.0001) >  3415,
(PID.TID 0000.0001) >  3416,
(PID.TID 0000.0001) >  3449,
(PID.TID 0000.0001) >  3450,
(PID.TID 0000.0001) >  3451,
(PID.TID 0000.0001) >  3452,
(PID.TID 0000.0001) >  3453,
(PID.TID 0000.0001) >  3454,
(PID.TID 0000.0001) >  3455,
(PID.TID 0000.0001) >  3456,
(PID.TID 0000.0001) >  3459,
(PID.TID 0000.0001) >  3460,
(PID.TID 0000.0001) >  3461,
(PID.TID 0000.0001) >  3462,
(PID.TID 0000.0001) >  3463,
(PID.TID 0000.0001) >  3464,
(PID.TID 0000.0001) >  3465,
(PID.TID 0000.0001) >  3466,
(PID.TID 0000.0001) >  3467,
(PID.TID 0000.0001) >  3468,
(PID.TID 0000.0001) >  3469,
(PID.TID 0000.0001) >  3470,
(PID.TID 0000.0001) >  3471,
(PID.TID 0000.0001) >  3503,
(PID.TID 0000.0001) >  3504,
(PID.TID 0000.0001) >  3505,
(PID.TID 0000.0001) >  3506,
(PID.TID 0000.0001) >  3507,
(PID.TID 0000.0001) >  3508,
(PID.TID 0000.0001) >  3509,
(PID.TID 0000.0001) >  3510,
(PID.TID 0000.0001) >  3513,
(PID.TID 0000.0001) >  3514,
(PID.TID 0000.0001) >  3515,
(PID.TID 0000.0001) >  3516,
(PID.TID 0000.0001) >  3517,
(PID.TID 0000.0001) >  3518,
(PID.TID 0000.0001) >  3519,
(PID.TID 0000.0001) >  3520,
(PID.TID 0000.0001) >  3521,
(PID.TID 0000.0001) >  3522,
(PID.TID 0000.0001) >  3523,
(PID.TID 0000.0001) >  3524,
(PID.TID 0000.0001) >  3525,
(PID.TID 0000.0001) >  3526,
(PID.TID 0000.0001) >  3527,
(PID.TID 0000.0001) >  3557,
(PID.TID 0000.0001) >  3558,
(PID.TID 0000.0001) >  3559,
(PID.TID 0000.0001) >  3560,
(PID.TID 0000.0001) >  3561,
(PID.TID 0000.0001) >  3562,
(PID.TID 0000.0001) >  3563,
(PID.TID 0000.0001) >  3564,
(PID.TID 0000.0001) >  3567,
(PID.TID 0000.0001) >  3568,
(PID.TID 0000.0001) >  3571,
(PID.TID 0000.0001) >  3572,
(PID.TID 0000.0001) >  3573,
(PID.TID 0000.0001) >  3574,
(PID.TID 0000.0001) >  3575,
(PID.TID 0000.0001) >  3576,
(PID.TID 0000.0001) >  3577,
(PID.TID 0000.0001) >  3578,
(PID.TID 0000.0001) >  3609,
(PID.TID 0000.0001) >  3610,
(PID.TID 0000.0001) >  3611,
(PID.TID 0000.0001) >  3612,
(PID.TID 0000.0001) >  3613,
(PID.TID 0000.0001) >  3614,
(PID.TID 0000.0001) >  3615,
(PID.TID 0000.0001) >  3616,
(PID.TID 0000.0001) >  3617,
(PID.TID 0000.0001) >  3618,
(PID.TID 0000.0001) >  3626,
(PID.TID 0000.0001) >  3627,
(PID.TID 0000.0001) >  3629,
(PID.TID 0000.0001) >  3630,
(PID.TID 0000.0001) >  3631,
(PID.TID 0000.0001) >  3632,
(PID.TID 0000.0001) >  3663,
(PID.TID 0000.0001) >  3664,
(PID.TID 0000.0001) >  3665,
(PID.TID 0000.0001) >  3666,
(PID.TID 0000.0001) >  3667,
(PID.TID 0000.0001) >  3668,
(PID.TID 0000.0001) >  3669,
(PID.TID 0000.0001) >  3670,
(PID.TID 0000.0001) >  3671,
(PID.TID 0000.0001) >  3672,
(PID.TID 0000.0001) >  3680,
(PID.TID 0000.0001) >  3684,
(PID.TID 0000.0001) >  3685,
(PID.TID 0000.0001) >  3686,
(PID.TID 0000.0001) >  3718,
(PID.TID 0000.0001) >  3719,
(PID.TID 0000.0001) >  3720,
(PID.TID 0000.0001) >  3721,
(PID.TID 0000.0001) >  3722,
(PID.TID 0000.0001) >  3723,
(PID.TID 0000.0001) >  3724,
(PID.TID 0000.0001) >  3725,
(PID.TID 0000.0001) >  3726,
(PID.TID 0000.0001) >  3738,
(PID.TID 0000.0001) >  3739,
(PID.TID 0000.0001) >  3772,
(PID.TID 0000.0001) >  3773,
(PID.TID 0000.0001) >  3774,
(PID.TID 0000.0001) >  3775,
(PID.TID 0000.0001) >  3776,
(PID.TID 0000.0001) >  3777,
(PID.TID 0000.0001) >  3778,
(PID.TID 0000.0001) >  3779,
(PID.TID 0000.0001) >  3780,
(PID.TID 0000.0001) >  3788,
(PID.TID 0000.0001) >  3789,
(PID.TID 0000.0001) >  3790,
(PID.TID 0000.0001) >  3802,
(PID.TID 0000.0001) >  3803,
(PID.TID 0000.0001) >  3825,
(PID.TID 0000.0001) >  3826,
(PID.TID 0000.0001) >  3827,
(PID.TID 0000.0001) >  3828,
(PID.TID 0000.0001) >  3829,
(PID.TID 0000.0001) >  3830,
(PID.TID 0000.0001) >  3831,
(PID.TID 0000.0001) >  3832,
(PID.TID 0000.0001) >  3833,
(PID.TID 0000.0001) >  3834,
(PID.TID 0000.0001) >  3841,
(PID.TID 0000.0001) >  3842,
(PID.TID 0000.0001) >  3854,
(PID.TID 0000.0001) >  3855,
(PID.TID 0000.0001) >  3856,
(PID.TID 0000.0001) >  3857,
(PID.TID 0000.0001) >  3858,
(PID.TID 0000.0001) >  3867,
(PID.TID 0000.0001) >  3879,
(PID.TID 0000.0001) >  3880,
(PID.TID 0000.0001) >  3881,
(PID.TID 0000.0001) >  3882,
(PID.TID 0000.0001) >  3883,
(PID.TID 0000.0001) >  3884,
(PID.TID 0000.0001) >  3885,
(PID.TID 0000.0001) >  3886,
(PID.TID 0000.0001) >  3887,
(PID.TID 0000.0001) >  3888,
(PID.TID 0000.0001) >  3895,
(PID.TID 0000.0001) >  3896,
(PID.TID 0000.0001) >  3908,
(PID.TID 0000.0001) >  3909,
(PID.TID 0000.0001) >  3910,
(PID.TID 0000.0001) >  3911,
(PID.TID 0000.0001) >  3912,
(PID.TID 0000.0001) >  3913,
(PID.TID 0000.0001) >  3914,
(PID.TID 0000.0001) >  3915,
(PID.TID 0000.0001) >  3916,
(PID.TID 0000.0001) >  3917,
(PID.TID 0000.0001) >  3931,
(PID.TID 0000.0001) >  3932,
(PID.TID 0000.0001) >  3933,
(PID.TID 0000.0001) >  3935,
(PID.TID 0000.0001) >  3937,
(PID.TID 0000.0001) >  3938,
(PID.TID 0000.0001) >  3939,
(PID.TID 0000.0001) >  3940,
(PID.TID 0000.0001) >  3941,
(PID.TID 0000.0001) >  3942,
(PID.TID 0000.0001) >  3963,
(PID.TID 0000.0001) >  3964,
(PID.TID 0000.0001) >  3965,
(PID.TID 0000.0001) >  3966,
(PID.TID 0000.0001) >  3967,
(PID.TID 0000.0001) >  3968,
(PID.TID 0000.0001) >  3969,
(PID.TID 0000.0001) >  3970,
(PID.TID 0000.0001) >  3971,
(PID.TID 0000.0001) >  3972,
(PID.TID 0000.0001) >  3988,
(PID.TID 0000.0001) >  3989,
(PID.TID 0000.0001) >  3990,
(PID.TID 0000.0001) >  3991,
(PID.TID 0000.0001) >  3992,
(PID.TID 0000.0001) >  3993,
(PID.TID 0000.0001) >  3994,
(PID.TID 0000.0001) >  3995,
(PID.TID 0000.0001) >  3996,
(PID.TID 0000.0001) >  4017,
(PID.TID 0000.0001) >  4018,
(PID.TID 0000.0001) >  4019,
(PID.TID 0000.0001) >  4020,
(PID.TID 0000.0001) >  4021,
(PID.TID 0000.0001) >  4022,
(PID.TID 0000.0001) >  4023,
(PID.TID 0000.0001) >  4024,
(PID.TID 0000.0001) >  4043,
(PID.TID 0000.0001) >  4044,
(PID.TID 0000.0001) >  4045,
(PID.TID 0000.0001) >  4046,
(PID.TID 0000.0001) >  4047,
(PID.TID 0000.0001) >  4048,
(PID.TID 0000.0001) >  4049,
(PID.TID 0000.0001) >  4050,
(PID.TID 0000.0001) >  4051,
(PID.TID 0000.0001) >  4052,
(PID.TID 0000.0001) >  4073,
(PID.TID 0000.0001) >  4074,
(PID.TID 0000.0001) >  4075,
(PID.TID 0000.0001) >  4076,
(PID.TID 0000.0001) >  4097,
(PID.TID 0000.0001) >  4098,
(PID.TID 0000.0001) >  4099,
(PID.TID 0000.0001) >  4100,
(PID.TID 0000.0001) >  4101,
(PID.TID 0000.0001) >  4102,
(PID.TID 0000.0001) >  4103,
(PID.TID 0000.0001) >  4104,
(PID.TID 0000.0001) >  4105,
(PID.TID 0000.0001) >  4106,
(PID.TID 0000.0001) >  4107,
(PID.TID 0000.0001) >  4108,
(PID.TID 0000.0001) >  4127,
(PID.TID 0000.0001) >  4128,
(PID.TID 0000.0001) >  4129,
(PID.TID 0000.0001) >  4130,
(PID.TID 0000.0001) >  4152,
(PID.TID 0000.0001) >  4153,
(PID.TID 0000.0001) >  4154,
(PID.TID 0000.0001) >  4155,
(PID.TID 0000.0001) >  4156,
(PID.TID 0000.0001) >  4157,
(PID.TID 0000.0001) >  4158,
(PID.TID 0000.0001) >  4159,
(PID.TID 0000.0001) > &
(PID.TID 0000.0001) 
(PID.TID 0000.0001) W2_READPARMS: finished reading data.exch2
(PID.TID 0000.0001) W2_useE2ioLayOut=    T ;/* T: use Exch2 glob IO map; F: use model default */
(PID.TID 0000.0001) W2_mapIO        =   1 ; /* select option for Exch2 global-IO map */
(PID.TID 0000.0001) W2_printMsg     =   0 ; /* select option for printing information */
(PID.TID 0000.0001) ===== Start setting W2 TOPOLOGY:
(PID.TID 0000.0001) W2_E2SETUP: number of Active Tiles =    2880
(PID.TID 0000.0001) W2_E2SETUP: number of Blank Tiles  =    1332
(PID.TID 0000.0001) W2_E2SETUP: Total number of Tiles  =    4212
(PID.TID 0000.0001) W2_SET_GEN_FACETS: preDefTopol=  0 selected
(PID.TID 0000.0001) W2_SET_GEN_FACETS: Number of facets =  5 (inferred from "dimsFacets")
(PID.TID 0000.0001) W2_E2SETUP: Total number of Facets =       5
(PID.TID 0000.0001) W2_SET_F2F_INDEX: index matrix for connected Facet-Edges:
(PID.TID 0000.0001) ** WARNING ** S.Edge of facet #  1 disconnected (facet_link=  0.00)
(PID.TID 0000.0001) ** WARNING ** S.Edge of facet #  2 disconnected (facet_link=  0.00)
(PID.TID 0000.0001) ** WARNING ** E.Edge of facet #  4 disconnected (facet_link=  0.00)
(PID.TID 0000.0001) ** WARNING ** E.Edge of facet #  5 disconnected (facet_link=  0.00)
(PID.TID 0000.0001) W2_SET_MAP_TILES: tile mapping within facet and global Map:
(PID.TID 0000.0001)  W2_mapIO = 1080 (=   18*sNx)
(PID.TID 0000.0001)  Global Map (IO): X-size=    1080 , Y-size=   14040
(PID.TID 0000.0001) W2_SET_MAP_TILES: tile offset within facet and global Map:
- facet  1 : X-size=  1080 , Y-size=  3240 ;  972 tiles (Tx,Ty=  18,  54)
- facet  2 : X-size=  1080 , Y-size=  3240 ;  972 tiles (Tx,Ty=  18,  54)
- facet  3 : X-size=  1080 , Y-size=  1080 ;  324 tiles (Tx,Ty=  18,  18)
- facet  4 : X-size=  3240 , Y-size=  1080 ;  972 tiles (Tx,Ty=  54,  18)
- facet  5 : X-size=  3240 , Y-size=  1080 ;  972 tiles (Tx,Ty=  54,  18)
(PID.TID 0000.0001) W2_SET_MAP_CUMSUM: setting Facet Matrix for CUMUL-SUM
(PID.TID 0000.0001) W2_SET_MAP_CUMSUM: set    4 /   5 active facets (pass,type=   1, 1)
 Facet Matrix for CUMUL-SUM (nFacets=   5, nActive=   5 ):
- facet  1 :  0  0 ,  0  0 ,  0  0 ,  0  0 ,  0  0 ,
- facet  2 :  1  0 ,  0  0 ,  0  0 ,  0  0 ,  0  0 ,
- facet  3 :  1  0 ,  0  1 ,  0  0 ,  0  0 ,  0  0 ,
- facet  4 :  1  0 ,  0  1 ,  1  0 ,  0  0 ,  0  0 ,
- facet  5 :  1  0 ,  0  1 ,  1  0 ,  0  1 ,  0  0 ,
 missing-corner Tile for CUMUL-SUM (nTiles=  4212 ): W2_tMC1=     0 , W2_tMC2=     0
(PID.TID 0000.0001) W2_SET_MAP_CUMSUM: done (skip Tile Matrix setting)
(PID.TID 0000.0001) W2_SET_TILE2TILES: tile neighbours and index connection:
(PID.TID 0000.0001) current Max.Nb.Neighbours (e.g., on tile  145 ) =  4
(PID.TID 0000.0001) ===== W2 TILE TOPOLOGY =====
(PID.TID 0000.0001)  TILE:   127 (bi,bj=   1   1 ), Nb of Neighbours =  2
(PID.TID 0000.0001)     NEIGHBOUR  1 = TILE  145 (n=  2) Comm = MSG (PROC=    2)
(PID.TID 0000.0001)     NEIGHBOUR  2 = TILE 4205 (n=  1) Comm = MSG (PROC= 2873)
(PID.TID 0000.0001) =====       setting W2 TOPOLOGY: Done
(PID.TID 0000.0001) 
(PID.TID 0000.0001) DEBUG_MSG: ENTERED S/R INITIALISE_FIXED
(PID.TID 0000.0001) DEBUG_MSG: CALLING S/R INI_PARMS
(PID.TID 0000.0001)  INI_PARMS: opening model parameter file "data"
(PID.TID 0000.0001)  OPEN_COPY_DATA_FILE: opening file data
(PID.TID 0000.0001) // =======================================================
(PID.TID 0000.0001) // Parameter file "data"
(PID.TID 0000.0001) // =======================================================
(PID.TID 0000.0001) ># ====================
(PID.TID 0000.0001) ># | Model parameters |
(PID.TID 0000.0001) ># ====================
(PID.TID 0000.0001) >#
(PID.TID 0000.0001) ># Continuous equation parameters
(PID.TID 0000.0001) > &PARM01
(PID.TID 0000.0001) > tRef =  18.89, 18.89, 18.89, 18.89, 18.89, 18.87,
(PID.TID 0000.0001) >         18.85, 18.82, 18.80, 18.73, 18.65, 18.57,
(PID.TID 0000.0001) >         18.40, 18.22, 18.00, 17.74, 17.44, 17.12,
(PID.TID 0000.0001) >         16.76, 16.39, 15.98, 15.55, 15.08, 14.59,
(PID.TID 0000.0001) >         14.07, 13.53, 12.99, 12.47, 11.97, 11.49,
(PID.TID 0000.0001) >         11.02, 10.57, 10.12,  9.71,  9.27,  8.88,
(PID.TID 0000.0001) >          8.46,  8.09,  7.71,  7.37,  7.03,  6.72,
(PID.TID 0000.0001) >          6.42,  6.13,  5.86,  5.59,  5.34,  5.09,
(PID.TID 0000.0001) >          4.87,  4.65,  4.45,  4.26,  4.08,  3.91,
(PID.TID 0000.0001) >          3.75,  3.60,  3.47,  3.33,  3.20,  3.08,
(PID.TID 0000.0001) >          2.96,  2.84,  2.73,  2.62,  2.51,  2.42,
(PID.TID 0000.0001) >          2.32,  2.23,  2.14,  2.06,  1.98,  1.90,
(PID.TID 0000.0001) >          1.81,  1.73,  1.65,  1.57,  1.49,  1.41,
(PID.TID 0000.0001) >          1.33,  1.24,  1.15,  1.06,  0.98,  0.94,
(PID.TID 0000.0001) >          0.91,  0.92,  0.98,  0.98,  0.98,  0.98,
(PID.TID 0000.0001) > sRef =  34.84, 34.84, 34.84, 34.84, 34.84, 34.84,
(PID.TID 0000.0001) >         34.85, 34.85, 34.85, 34.86, 34.87, 34.88,
(PID.TID 0000.0001) >         34.89, 34.90, 34.92, 34.94, 34.96, 34.98,
(PID.TID 0000.0001) >         35.00, 35.02, 35.04, 35.06, 35.07, 35.07,
(PID.TID 0000.0001) >         35.07, 35.05, 35.03, 35.01, 34.98, 34.95,
(PID.TID 0000.0001) >         34.92, 34.89, 34.85, 34.82, 34.79, 34.76,
(PID.TID 0000.0001) >         34.73, 34.71, 34.68, 34.66, 34.64, 34.62,
(PID.TID 0000.0001) >         34.61, 34.60, 34.59, 34.59, 34.58, 34.58,
(PID.TID 0000.0001) >         34.59, 34.59, 34.60, 34.60, 34.61, 34.62,
(PID.TID 0000.0001) >         34.63, 34.64, 34.65, 34.66, 34.67, 34.68,
(PID.TID 0000.0001) >         34.69, 34.70, 34.71, 34.71, 34.72, 34.72,
(PID.TID 0000.0001) >         34.73, 34.73, 34.74, 34.74, 34.74, 34.74,
(PID.TID 0000.0001) >         34.75, 34.74, 34.74, 34.74, 34.74, 34.74,
(PID.TID 0000.0001) >         34.74, 34.74, 34.73, 34.73, 34.73, 34.73,
(PID.TID 0000.0001) >         34.73, 34.72, 34.72, 34.72, 34.72, 34.72,
(PID.TID 0000.0001) > viscAr= 5.6614e-04,
(PID.TID 0000.0001) > no_slip_sides = .FALSE.,
(PID.TID 0000.0001) > no_slip_bottom = .TRUE.,
(PID.TID 0000.0001) > diffKrT=5.44e-7,
(PID.TID 0000.0001) > diffKrS=5.44e-7,
(PID.TID 0000.0001) > rhonil=1027.5,
(PID.TID 0000.0001) > rhoConstFresh=999.8,
(PID.TID 0000.0001) > eosType='JMD95Z',
(PID.TID 0000.0001) > hFacMin=0.3,
(PID.TID 0000.0001) > hFacInf=0.1,
(PID.TID 0000.0001) > hFacSup=5.,
(PID.TID 0000.0001) > implicitDiffusion=.TRUE.,
(PID.TID 0000.0001) > implicitViscosity=.TRUE.,
(PID.TID 0000.0001) > viscC4Leith=2.0,
(PID.TID 0000.0001) > viscC4Leithd=2.0,
(PID.TID 0000.0001) > useAreaViscLength=.TRUE.,
(PID.TID 0000.0001) > sideDragFactor=0.,
(PID.TID 0000.0001) > highOrderVorticity  = .TRUE.,
(PID.TID 0000.0001) > bottomDragQuadratic = 0.0021,
(PID.TID 0000.0001) > tempAdvScheme=7,
(PID.TID 0000.0001) > saltAdvScheme=7,
(PID.TID 0000.0001) > StaggerTimeStep=.TRUE.,
(PID.TID 0000.0001) > multiDimAdvection=.TRUE.,
(PID.TID 0000.0001) > vectorInvariantMomentum=.TRUE.,
(PID.TID 0000.0001) > implicitFreeSurface=.TRUE.,
(PID.TID 0000.0001) > exactConserv=.TRUE.,
(PID.TID 0000.0001) > debuglevel=5,
(PID.TID 0000.0001) > convertFW2Salt=-1
(PID.TID 0000.0001) > useRealFreshWaterFlux=.TRUE.,
(PID.TID 0000.0001) > useSingleCPUio=.TRUE.,
(PID.TID 0000.0001) > globalFiles=.TRUE.,
(PID.TID 0000.0001) > readBinaryPrec=32,
(PID.TID 0000.0001) > writeBinaryPrec=32,
(PID.TID 0000.0001) > temp_EvPrRn=0.,
(PID.TID 0000.0001) > /
(PID.TID 0000.0001) >
(PID.TID 0000.0001) ># Elliptic solver parameters
(PID.TID 0000.0001) > &PARM02
(PID.TID 0000.0001) > cg2dMaxIters = 100,
(PID.TID 0000.0001) > cg2dTargetResidual = 1.E-5,
(PID.TID 0000.0001) > &
(PID.TID 0000.0001) >
(PID.TID 0000.0001) ># Time stepping parameters
(PID.TID 0000.0001) > &PARM03
(PID.TID 0000.0001) > nIter0=731520,
(PID.TID 0000.0001) >  nTimeSteps       = 288,
(PID.TID 0000.0001) > deltaT = 300.,
(PID.TID 0000.0001) > abEps = 0.1,
(PID.TID 0000.0001) > forcing_In_AB=.FALSE.,
(PID.TID 0000.0001) > momDissip_In_AB=.FALSE.,
(PID.TID 0000.0001) >  pChkptFreq        = 86400.0,
(PID.TID 0000.0001) >  chkptFreq        = 86400.0,
(PID.TID 0000.0001) > dumpfreq = 300.,
(PID.TID 0000.0001) > monitorFreq = 300.,
(PID.TID 0000.0001) > dumpInitAndLast=.TRUE.,
(PID.TID 0000.0001) > /
(PID.TID 0000.0001) >
(PID.TID 0000.0001) ># Gridding parameters
(PID.TID 0000.0001) > &PARM04
(PID.TID 0000.0001) > usingCurvilinearGrid=.TRUE.,
(PID.TID 0000.0001) > delR =   1.00,    1.14,    1.30,    1.49,   1.70,
(PID.TID 0000.0001) >          1.93,    2.20,    2.50,    2.84,   3.21,
(PID.TID 0000.0001) >          3.63,    4.10,    4.61,    5.18,   5.79,
(PID.TID 0000.0001) >          6.47,    7.20,    7.98,    8.83,   9.73,
(PID.TID 0000.0001) >         10.69,   11.70,   12.76,   13.87,  15.03,
(PID.TID 0000.0001) >         16.22,   17.45,   18.70,   19.97,  21.27,
(PID.TID 0000.0001) >         22.56,   23.87,   25.17,   26.46,  27.74,
(PID.TID 0000.0001) >         29.00,   30.24,   31.45,   32.65,  33.82,
(PID.TID 0000.0001) >         34.97,   36.09,   37.20,   38.29,  39.37,
(PID.TID 0000.0001) >         40.45,   41.53,   42.62,   43.73,  44.87,
(PID.TID 0000.0001) >         46.05,   47.28,   48.56,   49.93,  51.38,
(PID.TID 0000.0001) >         52.93,   54.61,   56.42,   58.38,  60.53,
(PID.TID 0000.0001) >         62.87,   65.43,   68.24,   71.33,  74.73,
(PID.TID 0000.0001) >         78.47,   82.61,   87.17,   92.21,  97.79,
(PID.TID 0000.0001) >        103.96,  110.79,  118.35,  126.73, 136.01,
(PID.TID 0000.0001) >        146.30,  157.71,  170.35,  184.37, 199.89,
(PID.TID 0000.0001) >        217.09,  236.13,  257.21,  280.50, 306.24,
(PID.TID 0000.0001) >        334.64,  365.93,  400.38,  438.23, 479.74,
(PID.TID 0000.0001) > /
(PID.TID 0000.0001) >
(PID.TID 0000.0001) ># Input datasets
(PID.TID 0000.0001) > &PARM05
(PID.TID 0000.0001) > bathyFile      ='bathy1080_g5_r4',
(PID.TID 0000.0001) > hydrogThetaFile='Jan2010_THETA_1080x14040x90_r4',
(PID.TID 0000.0001) > hydrogSaltFile ='Jan2010_SALT_1080x14040x90_r4',
(PID.TID 0000.0001) > /
(PID.TID 0000.0001) >
(PID.TID 0000.0001) 
(PID.TID 0000.0001)  INI_PARMS ; starts to read PARM01
(PID.TID 0000.0001)  INI_PARMS ; read PARM01 : OK
(PID.TID 0000.0001)  INI_PARMS ; starts to read PARM02
(PID.TID 0000.0001)  INI_PARMS ; read PARM02 : OK
(PID.TID 0000.0001)  INI_PARMS ; starts to read PARM03
(PID.TID 0000.0001)  INI_PARMS ; read PARM03 : OK
(PID.TID 0000.0001)  INI_PARMS ; starts to read PARM04
(PID.TID 0000.0001)  INI_PARMS ; read PARM04 : OK
(PID.TID 0000.0001)  INI_PARMS ; starts to read PARM05
(PID.TID 0000.0001)  INI_PARMS ; read PARM05 : OK
(PID.TID 0000.0001)  INI_PARMS: finished reading file "data"
(PID.TID 0000.0001) DEBUG_MSG: CALLING S/R PACKAGES_BOOT
(PID.TID 0000.0001)  PACKAGES_BOOT: opening data.pkg
(PID.TID 0000.0001)  OPEN_COPY_DATA_FILE: opening file data.pkg
(PID.TID 0000.0001) // =======================================================
(PID.TID 0000.0001) // Parameter file "data.pkg"
(PID.TID 0000.0001) // =======================================================
(PID.TID 0000.0001) ># Packages
(PID.TID 0000.0001) > &PACKAGES
(PID.TID 0000.0001) > useCAL         = .TRUE.,
(PID.TID 0000.0001) > useEXF         = .FALSE.,
(PID.TID 0000.0001) > useSEAICE      = .FALSE.,
(PID.TID 0000.0001) > useKPP         = .TRUE.,
(PID.TID 0000.0001) > useFRAZIL      = .TRUE.,
(PID.TID 0000.0001) > useDiagnostics     = .TRUE.,
(PID.TID 0000.0001) > /
(PID.TID 0000.0001) 
(PID.TID 0000.0001)  PACKAGES_BOOT: finished reading data.pkg
(PID.TID 0000.0001)  PACKAGES_BOOT: On/Off package Summary
 --------  pkgs with a standard "usePKG" On/Off switch in "data.pkg":  --------
 pkg/kpp                  compiled   and   used ( useKPP                   = T )
 pkg/cal                  compiled   and   used ( useCAL                   = T )
 pkg/exf                  compiled but not used ( useEXF                   = F )
 pkg/frazil               compiled   and   used ( useFRAZIL                = T )
 pkg/diagnostics          compiled   and   used ( useDiagnostics           = T )
 -------- pkgs without standard "usePKG" On/Off switch in "data.pkg":  --------
 pkg/generic_advdiff      compiled   and   used ( useGAD                   = T )
 pkg/mom_common           compiled   and   used ( momStepping              = T )
 pkg/mom_vecinv           compiled   and   used ( +vectorInvariantMomentum = T )
 pkg/mom_fluxform         compiled but not used ( & not vectorInvariantMom = F )
 pkg/monitor              compiled   and   used ( monitorFreq > 0.         = T )
 pkg/debug                compiled   and   used ( debugMode                = T )
 pkg/exch2                compiled   and   used
 pkg/rw                   compiled   and   used
 pkg/mdsio                compiled   and   used
(PID.TID 0000.0001)  PACKAGES_BOOT: End of package Summary
(PID.TID 0000.0001) 
(PID.TID 0000.0001) DEBUG_MSG: CALLING S/R PACKAGES_READPARMS
(PID.TID 0000.0001) DEBUG_MSG: ENTERED S/R CAL_READPARMS
(PID.TID 0000.0001) CAL_READPARMS: opening data.cal
(PID.TID 0000.0001)  OPEN_COPY_DATA_FILE: opening file data.cal
(PID.TID 0000.0001) // =======================================================
(PID.TID 0000.0001) // Parameter file "data.cal"
(PID.TID 0000.0001) // =======================================================
(PID.TID 0000.0001) >#
(PID.TID 0000.0001) ># *******************
(PID.TID 0000.0001) ># Calendar Parameters
(PID.TID 0000.0001) ># *******************
(PID.TID 0000.0001) > &CAL_NML
(PID.TID 0000.0001) > TheCalendar='gregorian',
(PID.TID 0000.0001) > startDate_1=20100101,
(PID.TID 0000.0001) > startDate_2=000000,
(PID.TID 0000.0001) > calendarDumps = .TRUE.,
(PID.TID 0000.0001) > &
(PID.TID 0000.0001) 
(PID.TID 0000.0001) CAL_READPARMS: finished reading data.cal
(PID.TID 0000.0001) DEBUG_MSG: LEAVING S/R CAL_READPARMS
(PID.TID 0000.0001)  KPP_READPARMS: opening data.kpp
(PID.TID 0000.0001)  OPEN_COPY_DATA_FILE: opening file data.kpp
(PID.TID 0000.0001) // =======================================================
(PID.TID 0000.0001) // Parameter file "data.kpp"
(PID.TID 0000.0001) // =======================================================
(PID.TID 0000.0001) ># KPP parameters
(PID.TID 0000.0001) > &KPP_PARM01
(PID.TID 0000.0001) > KPPmixingMaps   = .FALSE.,
(PID.TID 0000.0001) > KPPwriteState   = .FALSE.,
(PID.TID 0000.0001) > kpp_dumpFreq    = 0.,
(PID.TID 0000.0001) > kpp_tavefreq    = 0.,
(PID.TID 0000.0001) > Ricr            = 0.3559,
(PID.TID 0000.0001) > Riinfty         = 0.6998,
(PID.TID 0000.0001) > &
(PID.TID 0000.0001) >
(PID.TID 0000.0001) 
(PID.TID 0000.0001)  KPP_READPARMS ; starts to read KPP_PARM01
(PID.TID 0000.0001)  KPP_READPARMS ; read KPP_PARM01 : OK
(PID.TID 0000.0001)  KPP_READPARMS: finished reading data.kpp
(PID.TID 0000.0001)  DIAGNOSTICS_READPARMS: opening data.diagnostics
(PID.TID 0000.0001)  OPEN_COPY_DATA_FILE: opening file data.diagnostics
(PID.TID 0000.0001) // =======================================================
(PID.TID 0000.0001) // Parameter file "data.diagnostics"
(PID.TID 0000.0001) // =======================================================
(PID.TID 0000.0001) ># Diagnostic Package Choices
(PID.TID 0000.0001) >#--------------------
(PID.TID 0000.0001) >#  dumpAtLast (logical): always write output at the end of simulation (default=F)
(PID.TID 0000.0001) >#  diag_mnc   (logical): write to NetCDF files (default=useMNC)
(PID.TID 0000.0001) >#--for each output-stream:
(PID.TID 0000.0001) >#  fileName(n) : prefix of the output file name (max 80c long) for outp.stream n
(PID.TID 0000.0001) >#  frequency(n):< 0 : write snap-shot output every |frequency| seconds
(PID.TID 0000.0001) >#               > 0 : write time-average output every frequency seconds
(PID.TID 0000.0001) >#  timePhase(n)     : write at time = timePhase + multiple of |frequency|
(PID.TID 0000.0001) >#    averagingFreq  : frequency (in s) for periodic averaging interval
(PID.TID 0000.0001) >#    averagingPhase : phase     (in s) for periodic averaging interval
(PID.TID 0000.0001) >#    repeatCycle    : number of averaging intervals in 1 cycle
(PID.TID 0000.0001) >#  levels(:,n) : list of levels to write to file (Notes: declared as REAL)
(PID.TID 0000.0001) >#                when this entry is missing, select all common levels of this list
(PID.TID 0000.0001) >#  fields(:,n) : list of selected diagnostics fields (8.c) in outp.stream n
(PID.TID 0000.0001) >#                (see "available_diagnostics.log" file for the full list of diags)
(PID.TID 0000.0001) >#  missing_value(n) : missing value for real-type fields in output file "n"
(PID.TID 0000.0001) >#  fileFlags(n)     : specific code (8c string) for output file "n"
(PID.TID 0000.0001) >#--------------------
(PID.TID 0000.0001) ># oceTAUX  zonal surface wind stress, >0 increases uVel (N/m^2)
(PID.TID 0000.0001) ># oceTAUY  meridional surf. wind stress, >0 increases vVel (N/m^2)
(PID.TID 0000.0001) ># oceFWflx net surface Fresh-Water flux into ocean, >0 decreases salinity (kg/m^2/s)
(PID.TID 0000.0001) ># oceSflux net surface Salt flux into the ocean, >0 increases salinity (g/m^2/s)
(PID.TID 0000.0001) ># oceQnet  net surface heat flux into the ocean, >0 increases theta (W/m^2)
(PID.TID 0000.0001) ># oceQsw   net Short-Wave radiation (+=down), >0 increases theta (W/m^2)
(PID.TID 0000.0001) ># SSS      Sea Surface Salinity (g/kg)
(PID.TID 0000.0001) ># SST      Sea Surface Temperature (degC)
(PID.TID 0000.0001) ># UVEL1    Zonal Surface Velocity (m/s)
(PID.TID 0000.0001) ># VVEL1    Meridional Surface Velocity (m/s)
(PID.TID 0000.0001) >
(PID.TID 0000.0001) > &DIAGNOSTICS_LIST
(PID.TID 0000.0001) >   frequency(1)  = -300.,
(PID.TID 0000.0001) >   fields(1,1)  = 'oceTAUX ','oceTAUY ','oceFWflx','oceSflux','oceQnet ','oceQsw  ',
(PID.TID 0000.0001) >   filename(1)  = 'state_2d_set1',
(PID.TID 0000.0001) > frequency(2)  = -300.,
(PID.TID 0000.0001) >    fields(1,2)  = 'SALT    ','THETA   ','UVELMASS','VVELMASS',
(PID.TID 0000.0001) >    levels(1,2)  = 1.,
(PID.TID 0000.0001) >    filename(2)  = 'state_3d_set1',
(PID.TID 0000.0001) > &
(PID.TID 0000.0001) >
(PID.TID 0000.0001) > &DIAG_STATIS_PARMS
(PID.TID 0000.0001) > stat_fields(1:6,1)  = 'ETAN    ', 'THETA   ','SALT    ','oceQnet ','oceFWflx','oceSflux',
(PID.TID 0000.0001) > stat_fName(1) = 'dynStDiag',
(PID.TID 0000.0001) > stat_freq(1)=  10800.0,
(PID.TID 0000.0001) > &
(PID.TID 0000.0001) 
(PID.TID 0000.0001) S/R DIAGNOSTICS_READPARMS, read namelist "diagnostics_list": start
(PID.TID 0000.0001) S/R DIAGNOSTICS_READPARMS, read namelist "diagnostics_list": OK
(PID.TID 0000.0001) S/R DIAGNOSTICS_READPARMS, read namelist "DIAG_STATIS_PARMS": start
(PID.TID 0000.0001) S/R DIAGNOSTICS_READPARMS, read namelist "DIAG_STATIS_PARMS": OK
(PID.TID 0000.0001)  DIAGNOSTICS_READPARMS: global parameter summary:
(PID.TID 0000.0001)  dumpAtLast = /* always write time-ave diags at the end */
(PID.TID 0000.0001)                   F
(PID.TID 0000.0001)     ;
(PID.TID 0000.0001)  diag_mnc =   /* write NetCDF output files */
(PID.TID 0000.0001)                   F
(PID.TID 0000.0001)     ;
(PID.TID 0000.0001)  useMissingValue = /* put MissingValue where mask = 0 */
(PID.TID 0000.0001)                   F
(PID.TID 0000.0001)     ;
(PID.TID 0000.0001)  diagCG_maxIters = /* max number of iters in diag_cg2d */
(PID.TID 0000.0001)                     100
(PID.TID 0000.0001)     ;
(PID.TID 0000.0001)  diagCG_resTarget = /* residual target for diag_cg2d */
(PID.TID 0000.0001)                 1.000000000000000E-05
(PID.TID 0000.0001)     ;
(PID.TID 0000.0001)  diagCG_pcOffDFac = /* preconditioner off-diagonal factor */
(PID.TID 0000.0001)                 9.611687812379854E-01
(PID.TID 0000.0001)     ;
(PID.TID 0000.0001) -----------------------------------------------------
(PID.TID 0000.0001)  DIAGNOSTICS_READPARMS: active diagnostics summary:
(PID.TID 0000.0001) -----------------------------------------------------
(PID.TID 0000.0001) Creating Output Stream: state_2d_set1
(PID.TID 0000.0001) Output Frequency:       -300.000000 ; Phase:         150.000000
(PID.TID 0000.0001)  Averaging Freq.:          0.000000 , Phase:           0.000000 , Cycle:   1
(PID.TID 0000.0001)  missing value: -9.990000000000E+02
(PID.TID 0000.0001)  Levels:    will be set later
(PID.TID 0000.0001)  Fields:    oceTAUX  oceTAUY  oceFWflx oceSflux oceQnet  oceQsw
(PID.TID 0000.0001) Creating Output Stream: state_3d_set1
(PID.TID 0000.0001) Output Frequency:       -300.000000 ; Phase:         150.000000
(PID.TID 0000.0001)  Averaging Freq.:          0.000000 , Phase:           0.000000 , Cycle:   1
(PID.TID 0000.0001)  missing value: -9.990000000000E+02
(PID.TID 0000.0001)  Levels:       1.
(PID.TID 0000.0001)  Fields:    SALT     THETA    UVELMASS VVELMASS
(PID.TID 0000.0001) -----------------------------------------------------
(PID.TID 0000.0001)  DIAGNOSTICS_READPARMS: statistics diags. summary:
(PID.TID 0000.0001) Creating Stats. Output Stream: dynStDiag
(PID.TID 0000.0001) Output Frequency:      10800.000000 ; Phase:           0.000000
(PID.TID 0000.0001)  Regions:   0
(PID.TID 0000.0001)  Fields:    ETAN     THETA    SALT     oceQnet  oceFWflx oceSflux
(PID.TID 0000.0001) -----------------------------------------------------
(PID.TID 0000.0001) 
(PID.TID 0000.0001) DEBUG_MSG: CALLING S/R SET_PARMS
(PID.TID 0000.0001) SET_PARMS: done
(PID.TID 0000.0001) DEBUG_MSG: CALLING S/R INI_MODEL_IO
(PID.TID 0000.0001) DEBUG_MSG: CALLING S/R INI_GRID
(PID.TID 0000.0001) Enter INI_VERTICAL_GRID: setInterFDr=    T ; setCenterDr=    F
(PID.TID 0000.0001) tile: 127 ; Read from file tile001.mitgrid
(PID.TID 0000.0001)   => xC yC dxF dyF rA xG yG dxV dyU rAz dxC dyC rAw rAs dxG dyG
(PID.TID 0000.0001) // =======================================================
(PID.TID 0000.0001) // Field Current xC       at iteration          0
(PID.TID 0000.0001) // CMIN =         -4.102644463656125E+01
(PID.TID 0000.0001) // CMAX =         -3.302587012859404E+01
(PID.TID 0000.0001) // CINT =          2.963175743691561E-01
(PID.TID 0000.0001) // SYMBOLS (CMIN->CMAX): -abcdefghijklmnopqrstuvwxyz+
(PID.TID 0000.0001) //                  0.0: .
(PID.TID 0000.0001) // RANGE I (Lo:Hi:Step):(    -7:    68:     1)
(PID.TID 0000.0001) // RANGE J (Lo:Hi:Step):(    68:    -7:    -1)
(PID.TID 0000.0001) // RANGE K (Lo:Hi:Step):(   1:   1:   1)
(PID.TID 0000.0001) // =======================================================
(PID.TID 0000.0001) K =   1
(PID.TID 0000.0001) //                I=2       I=12      I=22      I=32      I=42      I=52      I=62
(PID.TID 0000.0001) // |--J--|765432101|345678901|345678901|345678901|345678901|345678901|345678901|345678
(PID.TID 0000.0001) //     68 ddeeefffggghhhhiiijjjkkkklllmmmnnnnooopppqqqrrrrssstttuuuvvvvwwwxxxyyyyzzz++
(PID.TID 0000.0001) //     67 ddeeefffgggghhhiiijjjkkkklllmmmnnnnooopppqqqrrrrssstttuuuuvvvwwwxxxyyyyzzz++
(PID.TID 0000.0001) //     66 ddeeefffgggghhhiiijjjjkkklllmmmnnnnooopppqqqqrrrssstttuuuuvvvwwwxxxyyyyzzz++
(PID.TID 0000.0001) //     65 ddeeeffffggghhhiiijjjjkkklllmmmmnnnooopppqqqqrrrssstttuuuuvvvwwwxxxxyyyzzz++
(PID.TID 0000.0001) //     64 ddeeeffffggghhhiiiijjjkkklllmmmmnnnoooppppqqqrrrsssttttuuuvvvwwwxxxxyyyzzz++
(PID.TID 0000.0001) //     63 ddeeeefffggghhhiiiijjjkkkllllmmmnnnoooppppqqqrrrsssttttuuuvvvwwwxxxxyyyzzz++
(PID.TID 0000.0001) //     62 ddeeeefffggghhhhiiijjjkkkllllmmmnnnoooppppqqqrrrsssstttuuuvvvwwwwxxxyyyzzz++
(PID.TID 0000.0001) //     61 dddeeefffggghhhhiiijjjkkkllllmmmnnnoooopppqqqrrrsssstttuuuvvvwwwwxxxyyyzzz++
(PID.TID 0000.0001) //     60 dddeeefffgggghhhiiijjjkkkklllmmmnnnoooopppqqqrrrsssstttuuuvvvwwwwxxxy.......
(PID.TID 0000.0001) //     59 dddeeefffgggghhhiiijjjkkkklllmmmnnnnooopppqqqrrrrssstttuuuvvvvwwwxxxy.......
(PID.TID 0000.0001) //     58 dddeeeffffggghhhiiijjjjkkklllmmmnnnnooopppqqqrrrrssstttuuuvvvvwwwxxxy.......
(PID.TID 0000.0001) //     57 dddeeeffffggghhhiiijjjjkkklllmmmmnnnooopppqqqqrrrssstttuuuuvvvwwwxxxy.......
(PID.TID 0000.0001) //     56 dddeeeefffggghhhiiiijjjkkklllmmmmnnnooopppqqqqrrrssstttuuuuvvvwwwxxxy.......
(PID.TID 0000.0001) //     55 dddeeeefffggghhhiiiijjjkkklllmmmmnnnooopppqqqqrrrssstttuuuuvvvwwwxxxy.......
(PID.TID 0000.0001) //     54 ddddeeefffggghhhhiiijjjkkkllllmmmnnnoooppppqqqrrrsssttttuuuvvvwwwxxxx.......
(PID.TID 0000.0001) //     53 ddddeeefffggghhhhiiijjjkkkllllmmmnnnoooppppqqqrrrsssttttuuuvvvwwwxxxx.......
(PID.TID 0000.0001) //     52 cdddeeefffgggghhhiiijjjkkkklllmmmnnnoooopppqqqrrrsssstttuuuvvvwwwxxxx.......
(PID.TID 0000.0001) //     51 cdddeeeffffggghhhiiijjjjkkklllmmmnnnoooopppqqqrrrsssstttuuuvvvwwwwxxx.......
(PID.TID 0000.0001) //     50 cdddeeeffffggghhhiiijjjjkkklllmmmnnnnooopppqqqrrrrssstttuuuvvvwwwwxxx.......
(PID.TID 0000.0001) //     49 cdddeeeefffggghhhiiiijjjkkklllmmmnnnnooopppqqqrrrrssstttuuuvvvvwwwxxx.......
(PID.TID 0000.0001) //     48 cdddeeeefffggghhhiiiijjjkkklllmmmmnnnooopppqqqqrrrssstttuuuvvvvwwwxxx.......
(PID.TID 0000.0001) //     47 cddddeeefffggghhhhiiijjjkkkllllmmmnnnooopppqqqqrrrssstttuuuuvvvwwwxxx.......
(PID.TID 0000.0001) //     46 ccdddeeefffgggghhhiiijjjkkkllllmmmnnnoooppppqqqrrrssstttuuuuvvvwwwxxx.......
(PID.TID 0000.0001) //     45 ccdddeeefffgggghhhiiijjjkkkklllmmmnnnoooppppqqqrrrsssttttuuuvvvwwwxxx.......
(PID.TID 0000.0001) //     44 ccdddeeeffffggghhhiiijjjkkkklllmmmnnnoooopppqqqrrrsssttttuuuvvvwwwxxx.......
(PID.TID 0000.0001) //     43 ccdddeeeffffggghhhiiijjjjkkklllmmmnnnoooopppqqqrrrsssstttuuuvvvwwwxxx.......
(PID.TID 0000.0001) //     42 ccdddeeeefffggghhhiiiijjjkkklllmmmnnnnooopppqqqrrrsssstttuuuvvvwwwxxx.......
(PID.TID 0000.0001) //     41 ccddddeeefffggghhhiiiijjjkkklllmmmmnnnooopppqqqrrrrssstttuuuvvvwwwwxx.......
(PID.TID 0000.0001) //     40 cccdddeeefffggghhhhiiijjjkkklllmmmmnnnooopppqqqrrrrssstttuuuvvvwwwwxx.......
(PID.TID 0000.0001) //     39 cccdddeeefffgggghhhiiijjjkkkllllmmmnnnooopppqqqqrrrssstttuuuvvvvwwwxx.......
(PID.TID 0000.0001) //     38 cccdddeeefffgggghhhiiijjjkkkklllmmmnnnoooppppqqqrrrssstttuuuvvvvwwwxx.......
(PID.TID 0000.0001) //     37 cccdddeeeffffggghhhiiijjjkkkklllmmmnnnoooppppqqqrrrssstttuuuuvvvwwwxx.......
(PID.TID 0000.0001) //     36 cccdddeeeefffggghhhiiijjjjkkklllmmmnnnoooopppqqqrrrsssttttuuuvvvwwwxx.......
(PID.TID 0000.0001) //     35 cccddddeeefffggghhhiiiijjjkkklllmmmnnnnooopppqqqrrrsssttttuuuvvvwwwxx.......
(PID.TID 0000.0001) //     34 ccccdddeeefffggghhhhiiijjjkkklllmmmnnnnooopppqqqrrrsssstttuuuvvvwwwxx.......
(PID.TID 0000.0001) //     33 ccccdddeeefffggghhhhiiijjjkkklllmmmmnnnooopppqqqrrrsssstttuuuvvvwwwxx.......
(PID.TID 0000.0001) //     32 bcccdddeeefffgggghhhiiijjjkkkllllmmmnnnooopppqqqrrrrssstttuuuvvvwwwxx.......
(PID.TID 0000.0001) //     31 bcccdddeeeffffggghhhiiijjjkkkklllmmmnnnooopppqqqqrrrssstttuuuvvvwwwwx.......
(PID.TID 0000.0001) //     30 bcccdddeeeefffggghhhiiijjjkkkklllmmmnnnoooppppqqqrrrssstttuuuvvvvwwwx.......
(PID.TID 0000.0001) //     29 bcccddddeeefffggghhhiiijjjjkkklllmmmnnnoooppppqqqrrrssstttuuuvvvvwwwx.......
(PID.TID 0000.0001) //     28 bccccdddeeefffggghhhiiiijjjkkklllmmmnnnoooopppqqqrrrssstttuuuuvvvwwwx.......
(PID.TID 0000.0001) //     27 bbcccdddeeefffggghhhhiiijjjkkklllmmmnnnnooopppqqqrrrsssttttuuuvvvwwwx.......
(PID.TID 0000.0001) //     26 bbcccdddeeefffgggghhhiiijjjkkklllmmmmnnnooopppqqqrrrsssstttuuuvvvwwwx.......
(PID.TID 0000.0001) //     25 bbcccdddeeeffffggghhhiiijjjkkkllllmmmnnnooopppqqqrrrsssstttuuuvvvwwwx.......
(PID.TID 0000.0001) //     24 bbcccdddeeeefffggghhhiiijjjkkkklllmmmnnnooopppqqqrrrrssstttuuuvvvwwwx.......
(PID.TID 0000.0001) //     23 bbcccddddeeefffggghhhiiijjjjkkklllmmmnnnooopppqqqqrrrssstttuuuvvvwwwx.......
(PID.TID 0000.0001) //     22 bbccccdddeeefffggghhhiiiijjjkkklllmmmnnnoooppppqqqrrrssstttuuuvvvwwww.......
(PID.TID 0000.0001) //     21 bbbcccdddeeefffggghhhhiiijjjkkklllmmmnnnoooopppqqqrrrssstttuuuvvvvwww.......
(PID.TID 0000.0001) //     20 bbbcccdddeeefffgggghhhiiijjjkkklllmmmnnnnooopppqqqrrrssstttuuuuvvvwww.......
(PID.TID 0000.0001) //     19 bbbcccdddeeeffffggghhhiiijjjkkklllmmmmnnnooopppqqqrrrsssttttuuuvvvwww.......
(PID.TID 0000.0001) //     18 bbbcccdddeeeefffggghhhiiijjjkkkllllmmmnnnooopppqqqrrrsssstttuuuvvvwww.......
(PID.TID 0000.0001) //     17 bbbccccdddeeefffggghhhiiijjjjkkklllmmmnnnooopppqqqrrrrssstttuuuvvvwww.......
(PID.TID 0000.0001) //     16 bbbbcccdddeeefffggghhhiiiijjjkkklllmmmnnnooopppqqqqrrrssstttuuuvvvwww.......
(PID.TID 0000.0001) //     15 abbbcccdddeeefffggghhhhiiijjjkkklllmmmnnnoooppppqqqrrrssstttuuuvvvwww.......
(PID.TID 0000.0001) //     14 abbbcccdddeeefffgggghhhiiijjjkkklllmmmnnnoooopppqqqrrrssstttuuuvvvwww.......
(PID.TID 0000.0001) //     13 abbbcccdddeeeefffggghhhiiijjjkkklllmmmmnnnooopppqqqrrrssstttuuuvvvwww.......
(PID.TID 0000.0001) //     12 abbbcccddddeeefffggghhhiiijjjkkkllllmmmnnnooopppqqqrrrssstttuuuvvvvww.......
(PID.TID 0000.0001) //     11 abbbbcccdddeeefffggghhhiiijjjkkkklllmmmnnnooopppqqqrrrsssttttuuuvvvww.......
(PID.TID 0000.0001) //     10 aabbbcccdddeeefffggghhhiiiijjjkkklllmmmnnnooopppqqqrrrsssstttuuuvvvww.......
(PID.TID 0000.0001) //      9 aabbbcccdddeeefffggghhhhiiijjjkkklllmmmnnnooopppqqqqrrrssstttuuuvvvww.......
(PID.TID 0000.0001) //      8 aabbbcccdddeeeffffggghhhiiijjjkkklllmmmnnnoooppppqqqrrrssstttuuuvvvww.......
(PID.TID 0000.0001) //      7 aabbbcccddddeeefffggghhhiiijjjkkklllmmmnnnnooopppqqqrrrssstttuuuvvvww.......
(PID.TID 0000.0001) //      6 aabbbccccdddeeefffggghhhiiijjjkkklllmmmmnnnooopppqqqrrrssstttuuuvvvww.......
(PID.TID 0000.0001) //      5 aaabbbcccdddeeefffggghhhiiijjjkkkklllmmmnnnooopppqqqrrrssstttuuuvvvww.......
(PID.TID 0000.0001) //      4 aaabbbcccdddeeefffggghhhiiiijjjkkklllmmmnnnooopppqqqrrrssstttuuuuvvvw.......
(PID.TID 0000.0001) //      3 aaabbbcccdddeeefffgggghhhiiijjjkkklllmmmnnnooopppqqqrrrsssstttuuuvvvw.......
(PID.TID 0000.0001) //      2 aaabbbcccdddeeeefffggghhhiiijjjkkklllmmmnnnooopppqqqqrrrssstttuuuvvvw.......
(PID.TID 0000.0001) //      1 aaabbbbcccdddeeefffggghhhiiijjjkkklllmmmnnnoooopppqqqrrrssstttuuuvvvw.......
(PID.TID 0000.0001) //      0 -aaabbbc....................................................................
(PID.TID 0000.0001) //     -1 -aaabbbc....................................................................
(PID.TID 0000.0001) //     -2 -aaabbbc....................................................................
(PID.TID 0000.0001) //     -3 -aaabbbc....................................................................
(PID.TID 0000.0001) //     -4 -aaabbbb....................................................................
(PID.TID 0000.0001) //     -5 --aaabbb....................................................................
(PID.TID 0000.0001) //     -6 --aaabbb....................................................................
(PID.TID 0000.0001) //     -7 --aaabbb....................................................................
(PID.TID 0000.0001) // =======================================================
(PID.TID 0000.0001) // END OF FIELD                                          =
(PID.TID 0000.0001) // =======================================================
(PID.TID 0000.0001) 
(PID.TID 0000.0001) // =======================================================
(PID.TID 0000.0001) // Field Current yC       at iteration          0
(PID.TID 0000.0001) // CMIN =         -8.014087067772195E+01
(PID.TID 0000.0001) // CMAX =         -7.788928141354371E+01
(PID.TID 0000.0001) // CINT =          8.339219496956429E-02
(PID.TID 0000.0001) // SYMBOLS (CMIN->CMAX): -abcdefghijklmnopqrstuvwxyz+
(PID.TID 0000.0001) //                  0.0: .
(PID.TID 0000.0001) // RANGE I (Lo:Hi:Step):(    -7:    68:     1)
(PID.TID 0000.0001) // RANGE J (Lo:Hi:Step):(    68:    -7:    -1)
(PID.TID 0000.0001) // RANGE K (Lo:Hi:Step):(   1:   1:   1)
(PID.TID 0000.0001) // =======================================================
(PID.TID 0000.0001) K =   1
(PID.TID 0000.0001) //                I=2       I=12      I=22      I=32      I=42      I=52      I=62
(PID.TID 0000.0001) // |--J--|765432101|345678901|345678901|345678901|345678901|345678901|345678901|345678
(PID.TID 0000.0001) //     68 +++++++++++++++++++++++++++++zzzzzzzzzzzzzzzzzzzzzzzzzzzzzzzzzzzzzzzzzzzzzzz
(PID.TID 0000.0001) //     67 +++++++zzzzzzzzzzzzzzzzzzzzzzzzzzzzzzzzzzzzzzzzzzzzzzzzzzzzzzzzzzzzzzzzzzzzz
(PID.TID 0000.0001) //     66 zzzzzzzzzzzzzzzzzzzzzzzzzzzzzzzzzzzzzzzzzzzzzzzyyyyyyyyyyyyyyyyyyyyyyyyyyyyy
(PID.TID 0000.0001) //     65 zzzzzzzzzzzzzzzzzzzzzzyyyyyyyyyyyyyyyyyyyyyyyyyyyyyyyyyyyyyyyyyyyyyyyyyyyyyy
(PID.TID 0000.0001) //     64 zzyyyyyyyyyyyyyyyyyyyyyyyyyyyyyyyyyyyyyyyyyyyyyyyyyyyyyyyyyyyyyyyyxxxxxxxxxx
(PID.TID 0000.0001) //     63 yyyyyyyyyyyyyyyyyyyyyyyyyyyyyyyyyyyyyyxxxxxxxxxxxxxxxxxxxxxxxxxxxxxxxxxxxxxx
(PID.TID 0000.0001) //     62 yyyyyyyyyyyyyyyyxxxxxxxxxxxxxxxxxxxxxxxxxxxxxxxxxxxxxxxxxxxxxxxxxxxxxxxxxxxx
(PID.TID 0000.0001) //     61 xxxxxxxxxxxxxxxxxxxxxxxxxxxxxxxxxxxxxxxxxxxxxxxxxxxxxxxxxwwwwwwwwwwwwwwwwwww
(PID.TID 0000.0001) //     60 xxxxxxxxxxxxxxxxxxxxxxxxxxxxxxxwwwwwwwwwwwwwwwwwwwwwwwwwwwwwwwwwwwwww.......
(PID.TID 0000.0001) //     59 xxxxxxxxxxwwwwwwwwwwwwwwwwwwwwwwwwwwwwwwwwwwwwwwwwwwwwwwwwwwwwwwwwwww.......
(PID.TID 0000.0001) //     58 wwwwwwwwwwwwwwwwwwwwwwwwwwwwwwwwwwwwwwwwwwwwwwwwvvvvvvvvvvvvvvvvvvvvv.......
(PID.TID 0000.0001) //     57 wwwwwwwwwwwwwwwwwwwwwwwwwvvvvvvvvvvvvvvvvvvvvvvvvvvvvvvvvvvvvvvvvvvvv.......
(PID.TID 0000.0001) //     56 wwwwvvvvvvvvvvvvvvvvvvvvvvvvvvvvvvvvvvvvvvvvvvvvvvvvvvvvvvvvvvvvvvvvu.......
(PID.TID 0000.0001) //     55 vvvvvvvvvvvvvvvvvvvvvvvvvvvvvvvvvvvvvvvvvuuuuuuuuuuuuuuuuuuuuuuuuuuuu.......
(PID.TID 0000.0001) //     54 vvvvvvvvvvvvvvvvvvvuuuuuuuuuuuuuuuuuuuuuuuuuuuuuuuuuuuuuuuuuuuuuuuuuu.......
(PID.TID 0000.0001) //     53 uuuuuuuuuuuuuuuuuuuuuuuuuuuuuuuuuuuuuuuuuuuuuuuuuuuuuuuuuuuuttttttttt.......
(PID.TID 0000.0001) //     52 uuuuuuuuuuuuuuuuuuuuuuuuuuuuuuuuuuttttttttttttttttttttttttttttttttttt.......
(PID.TID 0000.0001) //     51 uuuuuuuuuuuuutttttttttttttttttttttttttttttttttttttttttttttttttttttttt.......
(PID.TID 0000.0001) //     50 ttttttttttttttttttttttttttttttttttttttttttttttttttttsssssssssssssssss.......
(PID.TID 0000.0001) //     49 ttttttttttttttttttttttttttttsssssssssssssssssssssssssssssssssssssssss.......
(PID.TID 0000.0001) //     48 ttttttttsssssssssssssssssssssssssssssssssssssssssssssssssssssssssssss.......
(PID.TID 0000.0001) //     47 sssssssssssssssssssssssssssssssssssssssssssssrrrrrrrrrrrrrrrrrrrrrrrr.......
(PID.TID 0000.0001) //     46 sssssssssssssssssssssssrrrrrrrrrrrrrrrrrrrrrrrrrrrrrrrrrrrrrrrrrrrrrr.......
[...]
DEBUG_STATS_RL:               Theta (DYNAMICS)  min= -1.69194901630670E+01
DEBUG_STATS_RL:               Theta (DYNAMICS)  max=  6.46857283127775E+01
DEBUG_STATS_RL:               Theta (DYNAMICS) mean=  6.24805823681588E+00
DEBUG_STATS_RL:               Theta (DYNAMICS) S.D.=  7.51341412315345E+00
DEBUG_STATS_RL:                Salt (DYNAMICS)  min=  5.26862743701794E+00
DEBUG_STATS_RL:                Salt (DYNAMICS)  max=  2.95593144064072E+02
DEBUG_STATS_RL:                Salt (DYNAMICS) mean=  3.45710359970193E+01
DEBUG_STATS_RL:                Salt (DYNAMICS) S.D.=  9.58273038713619E-01
DEBUG_STATS_RL:                  Gu (DYNAMICS)  min= -6.05029885682056E+01
DEBUG_STATS_RL:                  Gu (DYNAMICS)  max=  1.26482695448121E+02
DEBUG_STATS_RL:                  Gu (DYNAMICS) mean=  6.29816164400825E-03
DEBUG_STATS_RL:                  Gu (DYNAMICS) S.D.=  1.09572260758353E-01
DEBUG_STATS_RL:                  Gv (DYNAMICS)  min= -7.50447500695464E+02
DEBUG_STATS_RL:                  Gv (DYNAMICS)  max=  1.65624450892660E+02
DEBUG_STATS_RL:                  Gv (DYNAMICS) mean=  5.20229938263816E-03
DEBUG_STATS_RL:                  Gv (DYNAMICS) S.D.=  1.26489087390301E-01
DEBUG_STATS_RL:               GuNm1 (DYNAMICS)  min= -2.30544704366557E-01
DEBUG_STATS_RL:               GuNm1 (DYNAMICS)  max=  4.11126901824355E-01
DEBUG_STATS_RL:               GuNm1 (DYNAMICS) mean= -4.73386398071108E-07
DEBUG_STATS_RL:               GuNm1 (DYNAMICS) S.D.=  2.77651894077928E-05
DEBUG_STATS_RL:               GvNm1 (DYNAMICS)  min= -5.25769768395246E-01
DEBUG_STATS_RL:               GvNm1 (DYNAMICS)  max=  1.16469530527743E+00
DEBUG_STATS_RL:               GvNm1 (DYNAMICS) mean=  5.23169976081751E-07
DEBUG_STATS_RL:               GvNm1 (DYNAMICS) S.D.=  6.25457533273012E-05
DEBUG_STATS_RL:               GtNm1 (DYNAMICS)  min=  0.00000000000000E+00
DEBUG_STATS_RL:               GtNm1 (DYNAMICS)  max=  0.00000000000000E+00
DEBUG_STATS_RL:               GtNm1 (DYNAMICS) mean=  0.00000000000000E+00
DEBUG_STATS_RL:               GtNm1 (DYNAMICS) S.D.=  0.00000000000000E+00
DEBUG_STATS_RL:               GsNm1 (DYNAMICS)  min=  0.00000000000000E+00
DEBUG_STATS_RL:               GsNm1 (DYNAMICS)  max=  0.00000000000000E+00
DEBUG_STATS_RL:               GsNm1 (DYNAMICS) mean=  0.00000000000000E+00
DEBUG_STATS_RL:               GsNm1 (DYNAMICS) S.D.=  0.00000000000000E+00
(PID.TID 0000.0001) DEBUG_MSG: LEAVING S/R DYNAMICS
DEBUG_STATS_RL:    cg2d_b (SOLVE_FOR_PRESSURE)  min= -1.90283930516021E+05
DEBUG_STATS_RL:    cg2d_b (SOLVE_FOR_PRESSURE)  max=  1.65236892343180E+05
DEBUG_STATS_RL:    cg2d_b (SOLVE_FOR_PRESSURE) mean= -8.15035245484756E+01
DEBUG_STATS_RL:    cg2d_b (SOLVE_FOR_PRESSURE) S.D.=  3.62737942298228E+03
 cg2d: Sum(rhs),rhsMax =  -3.77331679244040E+03  2.49862096434642E+01
(PID.TID 0000.0001)  cg2d: iter=     1 ; resid.=  2.39232527365971E+00
(PID.TID 0000.0001)  cg2d: iter=     2 ; resid.=  1.43997323118812E+00
(PID.TID 0000.0001)  cg2d: iter=     3 ; resid.=  9.42915905115310E-01
(PID.TID 0000.0001)  cg2d: iter=     4 ; resid.=  9.04461832313765E-01
(PID.TID 0000.0001)  cg2d: iter=     5 ; resid.=  9.85754229181035E-01
(PID.TID 0000.0001)  cg2d: iter=     6 ; resid.=  1.01559752601859E+00
(PID.TID 0000.0001)  cg2d: iter=     7 ; resid.=  9.17754100964269E-01
(PID.TID 0000.0001)  cg2d: iter=     8 ; resid.=  7.35596650645866E-01
(PID.TID 0000.0001)  cg2d: iter=     9 ; resid.=  5.71451366783027E-01
(PID.TID 0000.0001)  cg2d: iter=    10 ; resid.=  4.90232524079218E-01
(PID.TID 0000.0001)  cg2d: iter=    11 ; resid.=  4.69083078962279E-01
(PID.TID 0000.0001)  cg2d: iter=    12 ; resid.=  4.58171485778781E-01
(PID.TID 0000.0001)  cg2d: iter=    13 ; resid.=  4.26609377286255E-01
(PID.TID 0000.0001)  cg2d: iter=    14 ; resid.=  3.74688679388188E-01
(PID.TID 0000.0001)  cg2d: iter=    15 ; resid.=  3.22303921447959E-01
(PID.TID 0000.0001)  cg2d: iter=    16 ; resid.=  2.88686753953911E-01
(PID.TID 0000.0001)  cg2d: iter=    17 ; resid.=  2.82243384104794E-01
(PID.TID 0000.0001)  cg2d: iter=    18 ; resid.=  2.87831082055071E-01
(PID.TID 0000.0001)  cg2d: iter=    19 ; resid.=  2.83692727119099E-01
(PID.TID 0000.0001)  cg2d: iter=    20 ; resid.=  2.61791553677803E-01
(PID.TID 0000.0001)  cg2d: iter=    21 ; resid.=  2.38741914134518E-01
(PID.TID 0000.0001)  cg2d: iter=    22 ; resid.=  2.31945479856570E-01
(PID.TID 0000.0001)  cg2d: iter=    23 ; resid.=  2.38815267643815E-01
(PID.TID 0000.0001)  cg2d: iter=    24 ; resid.=  2.43019419396959E-01
(PID.TID 0000.0001)  cg2d: iter=    25 ; resid.=  2.34495946571867E-01
(PID.TID 0000.0001)  cg2d: iter=    26 ; resid.=  2.14878981296158E-01
(PID.TID 0000.0001)  cg2d: iter=    27 ; resid.=  1.91413840900221E-01
(PID.TID 0000.0001)  cg2d: iter=    28 ; resid.=  1.72843272621340E-01
(PID.TID 0000.0001)  cg2d: iter=    29 ; resid.=  1.67019766595428E-01
(PID.TID 0000.0001)  cg2d: iter=    30 ; resid.=  1.68169383224079E-01
(PID.TID 0000.0001)  cg2d: iter=    31 ; resid.=  1.61898975724855E-01
(PID.TID 0000.0001)  cg2d: iter=    32 ; resid.=  1.43408220652625E-01
(PID.TID 0000.0001)  cg2d: iter=    33 ; resid.=  1.23861481466753E-01
(PID.TID 0000.0001)  cg2d: iter=    34 ; resid.=  1.11360552649348E-01
(PID.TID 0000.0001)  cg2d: iter=    35 ; resid.=  1.05130523548063E-01
(PID.TID 0000.0001)  cg2d: iter=    36 ; resid.=  1.02464013322800E-01
(PID.TID 0000.0001)  cg2d: iter=    37 ; resid.=  9.88861722710423E-02
(PID.TID 0000.0001)  cg2d: iter=    38 ; resid.=  9.02851511429419E-02
(PID.TID 0000.0001)  cg2d: iter=    39 ; resid.=  8.01872664864687E-02
(PID.TID 0000.0001)  cg2d: iter=    40 ; resid.=  7.39771038709058E-02
(PID.TID 0000.0001)  cg2d: iter=    41 ; resid.=  7.12074068283154E-02
(PID.TID 0000.0001)  cg2d: iter=    42 ; resid.=  6.89828234104113E-02
(PID.TID 0000.0001)  cg2d: iter=    43 ; resid.=  6.57147926469872E-02
(PID.TID 0000.0001)  cg2d: iter=    44 ; resid.=  6.10847844076843E-02
(PID.TID 0000.0001)  cg2d: iter=    45 ; resid.=  5.54042773003399E-02
(PID.TID 0000.0001)  cg2d: iter=    46 ; resid.=  4.99424260075847E-02
(PID.TID 0000.0001)  cg2d: iter=    47 ; resid.=  4.66041340232042E-02
(PID.TID 0000.0001)  cg2d: iter=    48 ; resid.=  4.45900946810909E-02
(PID.TID 0000.0001)  cg2d: iter=    49 ; resid.=  4.29266146842443E-02
(PID.TID 0000.0001)  cg2d: iter=    50 ; resid.=  3.78796788308564E-02
(PID.TID 0000.0001)  cg2d: iter=    51 ; resid.=  3.57056337378778E-02
(PID.TID 0000.0001)  cg2d: iter=    52 ; resid.=  3.27147989800988E-02
(PID.TID 0000.0001)  cg2d: iter=    53 ; resid.=  3.10482787919322E-02
(PID.TID 0000.0001)  cg2d: iter=    54 ; resid.=  2.99913689066846E-02
(PID.TID 0000.0001)  cg2d: iter=    55 ; resid.=  2.85370949951080E-02
(PID.TID 0000.0001)  cg2d: iter=    56 ; resid.=  2.61790974149962E-02
(PID.TID 0000.0001)  cg2d: iter=    57 ; resid.=  2.32767695843557E-02
(PID.TID 0000.0001)  cg2d: iter=    58 ; resid.=  2.14928607528781E-02
(PID.TID 0000.0001)  cg2d: iter=    59 ; resid.=  2.09036895977927E-02
(PID.TID 0000.0001)  cg2d: iter=    60 ; resid.=  2.05900066594739E-02
(PID.TID 0000.0001)  cg2d: iter=    61 ; resid.=  1.97088496305709E-02
(PID.TID 0000.0001)  cg2d: iter=    62 ; resid.=  1.81325685329154E-02
(PID.TID 0000.0001)  cg2d: iter=    63 ; resid.=  1.62293479837846E-02
(PID.TID 0000.0001)  cg2d: iter=    64 ; resid.=  1.48793542038848E-02
(PID.TID 0000.0001)  cg2d: iter=    65 ; resid.=  1.45812970666458E-02
(PID.TID 0000.0001)  cg2d: iter=    66 ; resid.=  1.44865350181061E-02
(PID.TID 0000.0001)  cg2d: iter=    67 ; resid.=  1.36697669374384E-02
(PID.TID 0000.0001)  cg2d: iter=    68 ; resid.=  1.23110088909135E-02
(PID.TID 0000.0001)  cg2d: iter=    69 ; resid.=  1.11245970268444E-02
(PID.TID 0000.0001)  cg2d: iter=    70 ; resid.=  1.04151322183330E-02
(PID.TID 0000.0001)  cg2d: iter=    71 ; resid.=  1.01279658075228E-02
(PID.TID 0000.0001)  cg2d: iter=    72 ; resid.=  9.95558188366420E-03
(PID.TID 0000.0001)  cg2d: iter=    73 ; resid.=  9.40667909904463E-03
(PID.TID 0000.0001)  cg2d: iter=    74 ; resid.=  8.41543318719355E-03
(PID.TID 0000.0001)  cg2d: iter=    75 ; resid.=  7.46903892700053E-03
(PID.TID 0000.0001)  cg2d: iter=    76 ; resid.=  6.96819038729160E-03
(PID.TID 0000.0001)  cg2d: iter=    77 ; resid.=  6.78588679845157E-03
(PID.TID 0000.0001)  cg2d: iter=    78 ; resid.=  6.52344376680552E-03
(PID.TID 0000.0001)  cg2d: iter=    79 ; resid.=  6.11791610668029E-03
(PID.TID 0000.0001)  cg2d: iter=    80 ; resid.=  5.64556057354007E-03
(PID.TID 0000.0001)  cg2d: iter=    81 ; resid.=  5.16613504897390E-03
(PID.TID 0000.0001)  cg2d: iter=    82 ; resid.=  4.84339788049270E-03
(PID.TID 0000.0001)  cg2d: iter=    83 ; resid.=  4.70106910486091E-03
(PID.TID 0000.0001)  cg2d: iter=    84 ; resid.=  4.55199594366897E-03
(PID.TID 0000.0001)  cg2d: iter=    85 ; resid.=  4.20278173778075E-03
(PID.TID 0000.0001)  cg2d: iter=    86 ; resid.=  3.74075578439979E-03
(PID.TID 0000.0001)  cg2d: iter=    87 ; resid.=  3.39456392566586E-03
(PID.TID 0000.0001)  cg2d: iter=    88 ; resid.=  3.22761070866393E-03
(PID.TID 0000.0001)  cg2d: iter=    89 ; resid.=  3.17832335054507E-03
(PID.TID 0000.0001)  cg2d: iter=    90 ; resid.=  3.09521346023030E-03
(PID.TID 0000.0001)  cg2d: iter=    91 ; resid.=  2.83038786343339E-03
(PID.TID 0000.0001)  cg2d: iter=    92 ; resid.=  2.47942479444334E-03
(PID.TID 0000.0001)  cg2d: iter=    93 ; resid.=  2.24866766319217E-03
(PID.TID 0000.0001)  cg2d: iter=    94 ; resid.=  2.23199024050656E-03
(PID.TID 0000.0001)  cg2d: iter=    95 ; resid.=  2.25421836213032E-03
(PID.TID 0000.0001)  cg2d: iter=    96 ; resid.=  2.14099502000437E-03
(PID.TID 0000.0001)  cg2d: iter=    97 ; resid.=  1.86182379148759E-03
(PID.TID 0000.0001)  cg2d: iter=    98 ; resid.=  1.58064051599061E-03
(PID.TID 0000.0001)  cg2d: iter=    99 ; resid.=  1.58339631947147E-03
(PID.TID 0000.0001)  cg2d: iter=   100 ; resid.=  1.66297938588480E-03
DEBUG_STATS_RL:    cg2d_x (SOLVE_FOR_PRESSURE)  min= -1.27788011679029E+02
DEBUG_STATS_RL:    cg2d_x (SOLVE_FOR_PRESSURE)  max=  1.28625521094191E+03
DEBUG_STATS_RL:    cg2d_x (SOLVE_FOR_PRESSURE) mean= -2.64146222148836E+00
DEBUG_STATS_RL:    cg2d_x (SOLVE_FOR_PRESSURE) S.D.=  9.49041761099728E+00
(PID.TID 0000.0001)      cg2d_init_res =   3.76220256266293E+00
(PID.TID 0000.0001)      cg2d_iters(min,last) =      -1     100
(PID.TID 0000.0001)      cg2d_last_res =   1.66297938588480E-03
(PID.TID 0000.0001) DEBUG_MSG: CALLING S/R UPDATE_ETAH
(PID.TID 0000.0001) DEBUG_MSG: CALLING S/R DO_STAGGER_FIELDS_EXCH.
(PID.TID 0000.0001) DEBUG_MSG: CALLING S/R THERMODYNAMICS
(PID.TID 0000.0001) DEBUG_MSG: ENTERED S/R THERMODYNAMICS
(PID.TID 0000.0001) DEBUG_MSG: CALLING S/R TEMP_INTEGRATE
(PID.TID 0000.0001) DEBUG_MSG: CALLING S/R GAD_ADVECTION
(PID.TID 0000.0001) DEBUG_MSG: CALLING S/R SALT_INTEGRATE
(PID.TID 0000.0001) DEBUG_MSG: CALLING S/R GAD_ADVECTION
DEBUG_STATS_RL:          Uvel (THERMODYNAMICS)  min= -1.26827424305198E+02
DEBUG_STATS_RL:          Uvel (THERMODYNAMICS)  max=  1.14144077277564E+02
DEBUG_STATS_RL:          Uvel (THERMODYNAMICS) mean=  6.60393793504394E-03
DEBUG_STATS_RL:          Uvel (THERMODYNAMICS) S.D.=  1.09819683816879E-01
DEBUG_STATS_RL:          Vvel (THERMODYNAMICS)  min= -5.96667448877780E+02
DEBUG_STATS_RL:          Vvel (THERMODYNAMICS)  max=  1.66326986919811E+02
DEBUG_STATS_RL:          Vvel (THERMODYNAMICS) mean=  4.94179447692253E-03
DEBUG_STATS_RL:          Vvel (THERMODYNAMICS) S.D.=  1.21227492884150E-01
DEBUG_STATS_RL:          Wvel (THERMODYNAMICS)  min= -7.29590876477945E-01
DEBUG_STATS_RL:          Wvel (THERMODYNAMICS)  max=  1.57574837610236E+00
DEBUG_STATS_RL:          Wvel (THERMODYNAMICS) mean=  5.43589488752727E-07
DEBUG_STATS_RL:          Wvel (THERMODYNAMICS) S.D.=  8.57295161342259E-03
DEBUG_STATS_RL:         Theta (THERMODYNAMICS)  min= -9.50360954133460E+03
DEBUG_STATS_RL:         Theta (THERMODYNAMICS)  max=  8.84821188823301E+03
DEBUG_STATS_RL:         Theta (THERMODYNAMICS) mean=  6.24925252004947E+00
DEBUG_STATS_RL:         Theta (THERMODYNAMICS) S.D.=  7.54321922379700E+00
DEBUG_STATS_RL:          Salt (THERMODYNAMICS)  min= -9.73080532805077E+02
DEBUG_STATS_RL:          Salt (THERMODYNAMICS)  max=  6.82308314847550E+02
DEBUG_STATS_RL:          Salt (THERMODYNAMICS) mean=  3.45708492032103E+01
DEBUG_STATS_RL:          Salt (THERMODYNAMICS) S.D.=  9.64493282214261E-01
DEBUG_STATS_RL:         GtNm1 (THERMODYNAMICS)  min=  0.00000000000000E+00
DEBUG_STATS_RL:         GtNm1 (THERMODYNAMICS)  max=  0.00000000000000E+00
DEBUG_STATS_RL:         GtNm1 (THERMODYNAMICS) mean=  0.00000000000000E+00
DEBUG_STATS_RL:         GtNm1 (THERMODYNAMICS) S.D.=  0.00000000000000E+00
DEBUG_STATS_RL:         GsNm1 (THERMODYNAMICS)  min=  0.00000000000000E+00
DEBUG_STATS_RL:         GsNm1 (THERMODYNAMICS)  max=  0.00000000000000E+00
DEBUG_STATS_RL:         GsNm1 (THERMODYNAMICS) mean=  0.00000000000000E+00
DEBUG_STATS_RL:         GsNm1 (THERMODYNAMICS) S.D.=  0.00000000000000E+00
(PID.TID 0000.0001) DEBUG_MSG: LEAVING S/R THERMODYNAMICS
(PID.TID 0000.0001) // =======================================================
(PID.TID 0000.0001) // Begin MONITOR dynamic field statistics
(PID.TID 0000.0001) // =======================================================
(PID.TID 0000.0001) %MON time_tsnumber                =                731525
(PID.TID 0000.0001) %MON time_secondsf                =   2.1945750000000E+08
(PID.TID 0000.0001) %MON dynstat_eta_max              =   1.3111711026430E+02
(PID.TID 0000.0001) %MON dynstat_eta_min              =  -1.3046096895231E+01
(PID.TID 0000.0001) %MON dynstat_eta_mean             =   1.7978073636208E-01
(PID.TID 0000.0001) %MON dynstat_eta_sd               =   7.7952562922269E-01
(PID.TID 0000.0001) %MON dynstat_eta_del2             =   4.3507864262715E-05
(PID.TID 0000.0001) %MON dynstat_uvel_max             =   1.1414407727756E+02
(PID.TID 0000.0001) %MON dynstat_uvel_min             =  -1.2682742430520E+02
(PID.TID 0000.0001) %MON dynstat_uvel_mean            =   3.3668040073412E-03
(PID.TID 0000.0001) %MON dynstat_uvel_sd              =   6.5478186182474E-02
(PID.TID 0000.0001) %MON dynstat_uvel_del2            =   4.3332156728992E-06
(PID.TID 0000.0001) %MON dynstat_vvel_max             =   1.6632698691981E+02
(PID.TID 0000.0001) %MON dynstat_vvel_min             =  -5.9666744887778E+02
(PID.TID 0000.0001) %MON dynstat_vvel_mean            =   7.2311900290142E-04
(PID.TID 0000.0001) %MON dynstat_vvel_sd              =   6.7970173265396E-02
(PID.TID 0000.0001) %MON dynstat_vvel_del2            =   6.5464956800959E-06
(PID.TID 0000.0001) %MON dynstat_wvel_max             =   1.5757483761024E+00
(PID.TID 0000.0001) %MON dynstat_wvel_min             =  -7.2959087647795E-01
(PID.TID 0000.0001) %MON dynstat_wvel_mean            =  -5.5880514190619E-18
(PID.TID 0000.0001) %MON dynstat_wvel_sd              =   1.3094221157274E-02
(PID.TID 0000.0001) %MON dynstat_wvel_del2            =   1.2737486138368E-06
(PID.TID 0000.0001) %MON dynstat_theta_max            =   8.8482118882330E+03
(PID.TID 0000.0001) %MON dynstat_theta_min            =  -9.5036095413346E+03
(PID.TID 0000.0001) %MON dynstat_theta_mean           =   3.6452362692640E+00
(PID.TID 0000.0001) %MON dynstat_theta_sd             =   4.3099001063230E+00
(PID.TID 0000.0001) %MON dynstat_theta_del2           =   8.9784614789498E-05
(PID.TID 0000.0001) %MON dynstat_salt_max             =   6.8230831484755E+02
(PID.TID 0000.0001) %MON dynstat_salt_min             =  -9.7308053280508E+02
(PID.TID 0000.0001) %MON dynstat_salt_mean            =   3.4722531018262E+01
(PID.TID 0000.0001) %MON dynstat_salt_sd              =   4.3220094624075E-01
(PID.TID 0000.0001) %MON dynstat_salt_del2            =   1.2560938270935E-05
(PID.TID 0000.0001) %MON dynstat_sst_max              =   1.6701325111089E+03
(PID.TID 0000.0001) %MON dynstat_sst_min              =  -9.5036095413346E+03
(PID.TID 0000.0001) %MON dynstat_sst_mean             =   1.7194530070152E+01
(PID.TID 0000.0001) %MON dynstat_sst_sd               =   9.8486808579672E+00
(PID.TID 0000.0001) %MON dynstat_sst_del2             =   3.7436840254759E-03
(PID.TID 0000.0001) %MON dynstat_sss_max              =   6.0318075138828E+02
(PID.TID 0000.0001) %MON dynstat_sss_min              =  -9.3909190842977E+02
(PID.TID 0000.0001) %MON dynstat_sss_mean             =   3.4571541380599E+01
(PID.TID 0000.0001) %MON dynstat_sss_sd               =   1.6048949430032E+00
(PID.TID 0000.0001) %MON dynstat_sss_del2             =   4.1495436792090E-04
(PID.TID 0000.0001) %MON forcing_qnet_max             =   6.4950062500000E+05
(PID.TID 0000.0001) %MON forcing_qnet_min             =  -3.2842143750000E+05
(PID.TID 0000.0001) %MON forcing_qnet_mean            =  -9.2588148274766E+02
(PID.TID 0000.0001) %MON forcing_qnet_sd              =   2.2973420438193E+03
(PID.TID 0000.0001) %MON forcing_qnet_del2            =   1.1328944352106E+00
(PID.TID 0000.0001) %MON forcing_qsw_max              =   0.0000000000000E+00
(PID.TID 0000.0001) %MON forcing_qsw_min              =   0.0000000000000E+00
(PID.TID 0000.0001) %MON forcing_qsw_mean             =   0.0000000000000E+00
(PID.TID 0000.0001) %MON forcing_qsw_sd               =   0.0000000000000E+00
(PID.TID 0000.0001) %MON forcing_qsw_del2             =   0.0000000000000E+00
(PID.TID 0000.0001) %MON forcing_empmr_max            =   3.8148674964905E+00
(PID.TID 0000.0001) %MON forcing_empmr_min            =  -2.2156417369843E+00
(PID.TID 0000.0001) %MON forcing_empmr_mean           =   4.7558799269838E-05
(PID.TID 0000.0001) %MON forcing_empmr_sd             =   6.4689302304252E-03
(PID.TID 0000.0001) %MON forcing_empmr_del2           =   3.1311431164903E-06
(PID.TID 0000.0001) %MON forcing_fu_max               =   1.5766578316689E+00
(PID.TID 0000.0001) %MON forcing_fu_min               =  -1.1076604127884E+00
(PID.TID 0000.0001) %MON forcing_fu_mean              =   1.6144924714678E-02
(PID.TID 0000.0001) %MON forcing_fu_sd                =   1.5532958895070E-01
(PID.TID 0000.0001) %MON forcing_fu_del2              =   2.4766644163305E-06
(PID.TID 0000.0001) %MON forcing_fv_max               =   1.3013923168182E+00
(PID.TID 0000.0001) %MON forcing_fv_min               =  -1.5451383965562E+00
(PID.TID 0000.0001) %MON forcing_fv_mean              =  -2.7504838044022E-03
(PID.TID 0000.0001) %MON forcing_fv_sd                =   1.5467355497174E-01
(PID.TID 0000.0001) %MON forcing_fv_del2              =   1.9690544720830E-06
(PID.TID 0000.0001) %MON trAdv_CFL_u_max              =   1.7778130237841E+01
(PID.TID 0000.0001) %MON trAdv_CFL_v_max              =   7.2375162667013E+01
(PID.TID 0000.0001) %MON trAdv_CFL_w_max              =   2.1657590581851E+02
(PID.TID 0000.0001) %MON advcfl_uvel_max              =   1.3836878465592E+01
(PID.TID 0000.0001) %MON advcfl_vvel_max              =   6.4888788219840E+01
(PID.TID 0000.0001) %MON advcfl_wvel_max              =   2.8115541651943E+02
(PID.TID 0000.0001) %MON advcfl_W_hf_max              =   2.4587735189983E+02
(PID.TID 0000.0001) %MON pe_b_mean                    =   8.4755793871122E-04
(PID.TID 0000.0001) %MON ke_max                       =   9.3887597889090E+04
(PID.TID 0000.0001) %MON ke_mean                      =   4.3995644751097E-03
(PID.TID 0000.0001) %MON ke_vol                       =   1.3321941752083E+18
(PID.TID 0000.0001) %MON vort_r_min                   =  -2.7505810869840E-01
(PID.TID 0000.0001) %MON vort_r_max                   =   1.7682870101469E-01
(PID.TID 0000.0001) %MON vort_a_mean                  =  -1.9843068483441E-05
(PID.TID 0000.0001) %MON vort_a_sd                    =   7.4739123250780E-05
(PID.TID 0000.0001) %MON vort_p_mean                  =  -2.0738617281633E-05
(PID.TID 0000.0001) %MON vort_p_sd                    =   8.3640938871919E-05
(PID.TID 0000.0001) %MON surfExpan_theta_mean         =   1.4385237068907E-04
(PID.TID 0000.0001) %MON surfExpan_salt_mean          =  -3.5130191962715E-06
