(PID.TID 0000.0001) 
(PID.TID 0000.0001) // ======================================================
(PID.TID 0000.0001) //                      MITgcm UV
(PID.TID 0000.0001) //                      =========
(PID.TID 0000.0001) // ======================================================
(PID.TID 0000.0001) // execution environment starting up...
(PID.TID 0000.0001) 
(PID.TID 0000.0001) // MITgcmUV version:  checkpoint67b
(PID.TID 0000.0001) // Build user:        estrobac
(PID.TID 0000.0001) // Build host:        borgq105
(PID.TID 0000.0001) // Build date:        Tue Jun 19 14:31:26 EDT 2018
(PID.TID 0000.0001) 
(PID.TID 0000.0001) // =======================================================
(PID.TID 0000.0001) // Execution Environment parameter file "eedata"
(PID.TID 0000.0001) // =======================================================
(PID.TID 0000.0001) ># Example "eedata" file
(PID.TID 0000.0001) ># Lines beginning "#" are comments
(PID.TID 0000.0001) ># nTx - No. threads per process in X
(PID.TID 0000.0001) ># nTy - No. threads per process in Y
(PID.TID 0000.0001) > &EEPARMS
(PID.TID 0000.0001) > useCubedSphereExchange=.TRUE.,
(PID.TID 0000.0001) > nTx=1,
(PID.TID 0000.0001) > nTy=1,
(PID.TID 0000.0001) > &
(PID.TID 0000.0001) 
(PID.TID 0000.0001) // =======================================================
(PID.TID 0000.0001) // Computational Grid Specification ( see files "SIZE.h" )
(PID.TID 0000.0001) //                                  ( and "eedata"       )
(PID.TID 0000.0001) // =======================================================
(PID.TID 0000.0001)      nPx =   96 ; /* No. processes in X */
(PID.TID 0000.0001)      nPy =    1 ; /* No. processes in Y */
(PID.TID 0000.0001)      nSx =    1 ; /* No. tiles in X per process */
(PID.TID 0000.0001)      nSy =    1 ; /* No. tiles in Y per process */
(PID.TID 0000.0001)      sNx =   30 ; /* Tile size in X */
(PID.TID 0000.0001)      sNy =   30 ; /* Tile size in Y */
(PID.TID 0000.0001)      OLx =    4 ; /* Tile overlap distance in X */
(PID.TID 0000.0001)      OLy =    4 ; /* Tile overlap distance in Y */
(PID.TID 0000.0001)      nTx =    1 ; /* No. threads in X per process */
(PID.TID 0000.0001)      nTy =    1 ; /* No. threads in Y per process */
(PID.TID 0000.0001)       Nr =   50 ; /* No. levels in the vertical   */
(PID.TID 0000.0001)       Nx = 2880 ; /* Total domain size in X ( = nPx*nSx*sNx ) */
(PID.TID 0000.0001)       Ny =   30 ; /* Total domain size in Y ( = nPy*nSy*sNy ) */
(PID.TID 0000.0001)   nTiles =    1 ; /* Total no. tiles per process ( = nSx*nSy ) */
(PID.TID 0000.0001)   nProcs =   96 ; /* Total no. processes ( = nPx*nPy ) */
(PID.TID 0000.0001) nThreads =    1 ; /* Total no. threads per process ( = nTx*nTy ) */
(PID.TID 0000.0001) usingMPI =    T ; /* Flag used to control whether MPI is in use */
(PID.TID 0000.0001)                   /*  note: To execute a program with MPI calls */
(PID.TID 0000.0001)                   /*  it must be launched appropriately e.g     */
(PID.TID 0000.0001)                   /*  "mpirun -np 64 ......"                    */
(PID.TID 0000.0001) useCoupler=    F ;/* Flag used to control communications with   */
(PID.TID 0000.0001)                   /*  other model components, through a coupler */
(PID.TID 0000.0001) debugMode =    F ; /* print debug msg. (sequence of S/R calls)  */
(PID.TID 0000.0001) printMapIncludesZeros=    F ; /* print zeros in Std.Output maps */
(PID.TID 0000.0001) maxLengthPrt1D=   65 /* maxLength of 1D array printed to StdOut */
(PID.TID 0000.0001) 
(PID.TID 0000.0001) ======= Starting MPI parallel Run =========
(PID.TID 0000.0001)  My Processor Name (len:  8 ) = borgq105
(PID.TID 0000.0001)  Located at (  0,  0) on processor grid (0: 95,0:  0)
(PID.TID 0000.0001)  Origin at  (     1,     1) on global grid (1:  2880,1:    30)
(PID.TID 0000.0001)  North neighbor = processor 0000
(PID.TID 0000.0001)  South neighbor = processor 0000
(PID.TID 0000.0001)   East neighbor = processor 0001
(PID.TID 0000.0001)   West neighbor = processor 0095
(PID.TID 0000.0001) // ======================================================
(PID.TID 0000.0001) // Mapping of tiles to threads
(PID.TID 0000.0001) // ======================================================
(PID.TID 0000.0001) // -o- Thread   1, tiles (   1:   1,   1:   1)
(PID.TID 0000.0001) 
(PID.TID 0000.0001) W2_READPARMS: opening data.exch2
(PID.TID 0000.0001)  OPEN_COPY_DATA_FILE: opening file data.exch2
(PID.TID 0000.0001) // =======================================================
(PID.TID 0000.0001) // Parameter file "data.exch2"
(PID.TID 0000.0001) // =======================================================
(PID.TID 0000.0001) ># EXCH2 Package: Wrapper-2 User Choice
(PID.TID 0000.0001) >#--------------------
(PID.TID 0000.0001) >#  preDefTopol   :: pre-defined Topology selector:
(PID.TID 0000.0001) >#                :: = 0 : topology defined from processing "data.exch2";
(PID.TID 0000.0001) >#                :: = 1 : simple, single facet topology;
(PID.TID 0000.0001) >#                :: = 2 : customized topology (w2_set_myown_facets)
(PID.TID 0000.0001) >#                :: = 3 : 6-facet Cube (3 face-dims: nRed, nGreen, nBlue).
(PID.TID 0000.0001) >#  dimsFacets    :: facet pair of dimensions (n1x,n1y, n2x,n2y ...)
(PID.TID 0000.0001) >#  facetEdgeLink :: Face-Edge connectivity map:
(PID.TID 0000.0001) >#    facetEdgeLink(i,j)=XX.1 : face(j)-edge(i) (i=1,2,3,4 <==> N,S,E,W)
(PID.TID 0000.0001) >#    is connected to Northern edge of face "XX" ; similarly,
(PID.TID 0000.0001) >#    = XX.2 : to Southern.E, XX.3 = Eastern.E, XX.4 = Western.E of face "XX"
(PID.TID 0000.0001) >#  blankList     :: List of "blank" tiles
(PID.TID 0000.0001) >#  W2_mapIO      :: global map IO selector (-1 = old type ; 0 = 1 long line in X
(PID.TID 0000.0001) >#                :: 1 = compact, mostly in Y dir)
(PID.TID 0000.0001) >#  W2_printMsg   :: option for information messages printing
(PID.TID 0000.0001) >#                :: <0 : write to log file ; =0 : minimum print ;
(PID.TID 0000.0001) >#                :: =1 : no duplicated print ; =2 : all processes do print
(PID.TID 0000.0001) >#--------------------
(PID.TID 0000.0001) > &W2_EXCH2_PARM01
(PID.TID 0000.0001) ># W2_printMsg= 0,
(PID.TID 0000.0001) >  W2_mapIO   = 1,
(PID.TID 0000.0001) >#
(PID.TID 0000.0001) >  preDefTopol=0,
(PID.TID 0000.0001) >#-- 5 facets llc_120 topology (drop facet 6 and its connection):
(PID.TID 0000.0001) >  dimsFacets(1:10) = 90, 270, 90, 270, 90, 90, 270, 90, 270, 90,
(PID.TID 0000.0001) >  facetEdgeLink(1:4,1)= 3.4, 0. , 2.4, 5.1,
(PID.TID 0000.0001) >  facetEdgeLink(1:4,2)= 3.2, 0. , 4.2, 1.3,
(PID.TID 0000.0001) >  facetEdgeLink(1:4,3)= 5.4, 2.1, 4.4, 1.1,
(PID.TID 0000.0001) >  facetEdgeLink(1:4,4)= 5.2, 2.3, 0. , 3.3,
(PID.TID 0000.0001) >  facetEdgeLink(1:4,5)= 1.4, 4.1, 0. , 3.1,
(PID.TID 0000.0001) >#-- full 6 facets llc_120 topology (equivalent to default preDefTopol=3):
(PID.TID 0000.0001) ># dimsFacets(1:12) = 120, 360, 120, 360, 120, 120, 360, 120, 360, 120, 120, 120,
(PID.TID 0000.0001) ># facetEdgeLink(1:4,1)= 3.4, 6.1, 2.4, 5.1,
(PID.TID 0000.0001) ># facetEdgeLink(1:4,2)= 3.2, 6.3, 4.2, 1.3,
(PID.TID 0000.0001) ># facetEdgeLink(1:4,3)= 5.4, 2.1, 4.4, 1.1,
(PID.TID 0000.0001) ># facetEdgeLink(1:4,4)= 5.2, 2.3, 6.2, 3.3,
(PID.TID 0000.0001) ># facetEdgeLink(1:4,5)= 1.4, 4.1, 6.4, 3.1,
(PID.TID 0000.0001) ># facetEdgeLink(1:4,6)= 1.2, 4.3, 2.2, 5.3,
(PID.TID 0000.0001) >#
(PID.TID 0000.0001) >#90x30   nprocs = 36
(PID.TID 0000.0001) ># blankList(1:3)=1,10,11,
(PID.TID 0000.0001) >#30x90
(PID.TID 0000.0001) >#
(PID.TID 0000.0001) >#45x30   nprocs = 72
(PID.TID 0000.0001) ># blankList(1:6)=1,2,19,20,21,22
(PID.TID 0000.0001) >#30x45   nprocs = 68
(PID.TID 0000.0001) ># blankList(1:10)=2,3,19,20,21,35,51,60,69,78
(PID.TID 0000.0001) >#45x45   nprocs = 48
(PID.TID 0000.0001) ># blankList(1:4)=2,13,14,23
(PID.TID 0000.0001) >#30x30   nprocs = 96
(PID.TID 0000.0001) >  blankList(1:21)=1,2,3,5,6,28,29,30,31,32,33,49,50,52,53,72,81,90,99,108,117
(PID.TID 0000.0001) >#30x30   nprocs = 112
(PID.TID 0000.0001) ># blankList(1:5)=2,3,28,29,30
(PID.TID 0000.0001) >#15x30   nprocs = 192
(PID.TID 0000.0001) ># blankList(1:42)=1,2,3,4,5,6,9,10,11,12,55,56,57,58,59,60,61,62,63,64,65,66,
(PID.TID 0000.0001) >#            97,98,99,100,103,104,105,106,143,144,
(PID.TID 0000.0001) >#            161,162,179,180,197,198,215,216,233,234
(PID.TID 0000.0001) >#15x15   nprocs = 360
(PID.TID 0000.0001) ># blankList(1:108)=1,2,3,4,5,6,7,8,9,10,11,12,14,15,16,17,18,21,22,23,24,
(PID.TID 0000.0001) >#  65,71,75,76,90,95,96,101,102,109,110,111,112,113,114,115,116,117,118,119,
(PID.TID 0000.0001) >#  120,121,122,123,124,125,126,127,128,129,130,131,132,
(PID.TID 0000.0001) >#  188,189,190,193,194,195,196,199,
(PID.TID 0000.0001) >#  200,201,202,203,205,206,207,208,209,211,212,213,214,215,216,242,247,253,
(PID.TID 0000.0001) >#  267,268,269,270,287,288,305,306,323,324,341,342,359,360,362,376,377,378,
(PID.TID 0000.0001) >#  380,381,382,395,396,400,412,413,414,430,
(PID.TID 0000.0001) >#note: it seems that 8 of the followig 9 tiles could be added to 15x15 blank
(PID.TID 0000.0001) >#  list to reach 352=22*16 cores : 431 432 440 441 448 449 450 467 468
(PID.TID 0000.0001) > &
(PID.TID 0000.0001) 
(PID.TID 0000.0001) W2_READPARMS: finished reading data.exch2
(PID.TID 0000.0001) W2_useE2ioLayOut=    T ;/* T: use Exch2 glob IO map; F: use model default */
(PID.TID 0000.0001) W2_mapIO        =   1 ; /* select option for Exch2 global-IO map */
(PID.TID 0000.0001) W2_printMsg     =  -1 ; /* select option for printing information */
(PID.TID 0000.0001) ===== Start setting W2 TOPOLOGY:
(PID.TID 0000.0001)  write to log-file: w2_tile_topology.0000.log
(PID.TID 0000.0001) =====       setting W2 TOPOLOGY: Done
(PID.TID 0000.0001) 
(PID.TID 0000.0001)  INI_PARMS: opening model parameter file "data"
(PID.TID 0000.0001)  OPEN_COPY_DATA_FILE: opening file data
(PID.TID 0000.0001) // =======================================================
(PID.TID 0000.0001) // Parameter file "data"
(PID.TID 0000.0001) // =======================================================
(PID.TID 0000.0001) ># ====================
(PID.TID 0000.0001) ># | Model parameters |
(PID.TID 0000.0001) ># ====================
(PID.TID 0000.0001) >#
(PID.TID 0000.0001) ># Continuous equation parameters
(PID.TID 0000.0001) > &PARM01
(PID.TID 0000.0001) > tRef               = 3*23.,3*22.,21.,2*20.,19.,2*18.,17.,2*16.,15.,14.,13.,
(PID.TID 0000.0001) >                      12.,11.,2*9.,8.,7.,2*6.,2*5.,3*4.,3*3.,4*2.,12*1.,
(PID.TID 0000.0001) > sRef               = 50*34.5,
(PID.TID 0000.0001) > no_slip_sides  = .TRUE.,
(PID.TID 0000.0001) > no_slip_bottom = .TRUE.,
(PID.TID 0000.0001) >#
(PID.TID 0000.0001) > viscAr=0.5E-4,
(PID.TID 0000.0001) >#
(PID.TID 0000.0001) > viscAh=1.E0,
(PID.TID 0000.0001) > viscAhGrid=2.E-2,
(PID.TID 0000.0001) ># viscAh=2.0e4,
(PID.TID 0000.0001) >#
(PID.TID 0000.0001) > diffKhT=1.E1,
(PID.TID 0000.0001) > diffKrT=1.E-5,
(PID.TID 0000.0001) > diffKhS=1.E1,
(PID.TID 0000.0001) > diffKrS=1.E-5,
(PID.TID 0000.0001) >#
(PID.TID 0000.0001) >### diffKrBL79surf=0.1E-4,
(PID.TID 0000.0001) >### diffKrBL79deep=1.0E-4,
(PID.TID 0000.0001) > bottomDragQuadratic = 0.001,
(PID.TID 0000.0001) >#when using ggl90
(PID.TID 0000.0001) > ivdc_kappa=10.,
(PID.TID 0000.0001) > implicitDiffusion=.TRUE.,
(PID.TID 0000.0001) > implicitViscosity=.TRUE.,
(PID.TID 0000.0001) > useRealFreshWaterFlux=.TRUE.,
(PID.TID 0000.0001) ># balanceThetaClimRelax=.TRUE.,
(PID.TID 0000.0001) > balanceSaltClimRelax=.TRUE.,
(PID.TID 0000.0001) ># balanceEmPmR=.TRUE.,
(PID.TID 0000.0001) ># balanceQnet=.TRUE.,
(PID.TID 0000.0001) > allowFreezing=.FALSE.,
(PID.TID 0000.0001) >### hFacInf=0.2,
(PID.TID 0000.0001) >### hFacSup=2.0,
(PID.TID 0000.0001) > hFacMin=.2,
(PID.TID 0000.0001) > hFacMinDr=5.,
(PID.TID 0000.0001) > select_rStar=2,
(PID.TID 0000.0001) > nonlinFreeSurf=4,
(PID.TID 0000.0001) > gravity=9.81,
(PID.TID 0000.0001) > rhonil=1029.,
(PID.TID 0000.0001) > rhoConst=1029.,
(PID.TID 0000.0001) > rhoConstFresh=1000.,
(PID.TID 0000.0001) > convertFW2Salt=-1.,
(PID.TID 0000.0001) > eosType='JMD95Z',
(PID.TID 0000.0001) > implicitFreeSurface=.TRUE.,
(PID.TID 0000.0001) > exactConserv=.TRUE.,
(PID.TID 0000.0001) > useSingleCpuIO=.TRUE.,
(PID.TID 0000.0001) > tempAdvScheme=30,
(PID.TID 0000.0001) > saltAdvScheme=30,
(PID.TID 0000.0001) > tempVertAdvScheme=3,
(PID.TID 0000.0001) > saltVertAdvScheme=3,
(PID.TID 0000.0001) > tempImplVertAdv=.TRUE.,
(PID.TID 0000.0001) > saltImplVertAdv=.TRUE.,
(PID.TID 0000.0001) > staggerTimeStep=.TRUE.,
(PID.TID 0000.0001) > vectorInvariantMomentum=.TRUE.,
(PID.TID 0000.0001) >#when using the cd scheme:
(PID.TID 0000.0001) ># useCDscheme=.TRUE.,
(PID.TID 0000.0001) > useJamartWetPoints=.TRUE.,
(PID.TID 0000.0001) > readBinaryPrec=32,
(PID.TID 0000.0001) > writeBinaryPrec=32,
(PID.TID 0000.0001) > debugLevel=1,
(PID.TID 0000.0001) > &
(PID.TID 0000.0001) >
(PID.TID 0000.0001) ># Elliptic solver parameters
(PID.TID 0000.0001) > &PARM02
(PID.TID 0000.0001) > cg2dMaxIters=300,
(PID.TID 0000.0001) > cg2dTargetResWunit=1.E-12,
(PID.TID 0000.0001) > &
(PID.TID 0000.0001) >
(PID.TID 0000.0001) ># Time stepping parameters
(PID.TID 0000.0001) > &PARM03
(PID.TID 0000.0001) > nIter0=1,
(PID.TID 0000.0001) >#2 lev2 for testing:
(PID.TID 0000.0001) ># nTimeSteps       = 96,
(PID.TID 0000.0001) >#20y:
(PID.TID 0000.0001) >  nTimeSteps       = 96,
(PID.TID 0000.0001) >#60 years
(PID.TID 0000.0001) ># nTimeSteps       = 96,
(PID.TID 0000.0001) >#
(PID.TID 0000.0001) > forcing_In_AB=.FALSE.,
(PID.TID 0000.0001) > momDissip_In_AB=.FALSE.,
(PID.TID 0000.0001) >#when using the cd scheme:
(PID.TID 0000.0001) ># epsAB_CD = 0.25,
(PID.TID 0000.0001) ># tauCD=172800.0,
(PID.TID 0000.0001) > deltaT = 900.,
(PID.TID 0000.0001) >#when using ab2:
(PID.TID 0000.0001) > abEps = 0.1,
(PID.TID 0000.0001) >#when using ab3:
(PID.TID 0000.0001) ># doAB_onGtGs=.FALSE.,
(PID.TID 0000.0001) ># alph_AB=0.5,
(PID.TID 0000.0001) ># beta_AB=0.281105,
(PID.TID 0000.0001) >#
(PID.TID 0000.0001) >  pChkptFreq        = 86400.0,
(PID.TID 0000.0001) >  chkptFreq        = 86400.0,
(PID.TID 0000.0001) ># taveFreq    =31536000.0,
(PID.TID 0000.0001) ># dumpFreq    =31536000.0,
(PID.TID 0000.0001) > monitorFreq = 7200.0,
(PID.TID 0000.0001) > dumpInitAndLast = .TRUE.,
(PID.TID 0000.0001) > pickupStrictlyMatch=.FALSE.,
(PID.TID 0000.0001) > &
(PID.TID 0000.0001) >
(PID.TID 0000.0001) ># Gridding parameters
(PID.TID 0000.0001) > &PARM04
(PID.TID 0000.0001) > usingCurvilinearGrid=.TRUE.,
(PID.TID 0000.0001) > delR =
(PID.TID 0000.0001) >     10.00, 10.00, 10.00, 10.00, 10.00, 10.00, 10.00, 10.01,
(PID.TID 0000.0001) >     10.03, 10.11, 10.32, 10.80, 11.76, 13.42, 16.04, 19.82, 24.85,
(PID.TID 0000.0001) >     31.10, 38.42, 46.50, 55.00, 63.50, 71.58, 78.90, 85.15, 90.18,
(PID.TID 0000.0001) >     93.96, 96.58, 98.25, 99.25,100.01,101.33,104.56,111.33,122.83,
(PID.TID 0000.0001) >     139.09,158.94,180.83,203.55,226.50,249.50,272.50,295.50,318.50,
(PID.TID 0000.0001) >     341.50,364.50,387.50,410.50,433.50,456.50,
(PID.TID 0000.0001) > &
(PID.TID 0000.0001) >
(PID.TID 0000.0001) ># Input datasets
(PID.TID 0000.0001) > &PARM05
(PID.TID 0000.0001) >#adTapeDir='tapes',
(PID.TID 0000.0001) > bathyFile      ='bathy.bin',
(PID.TID 0000.0001) > hydrogThetaFile='T_OWPv1_M_eccollc_90x50.bin',
(PID.TID 0000.0001) > hydrogSaltFile ='S_OWPv1_M_eccollc_90x50.bin',
(PID.TID 0000.0001) > viscA4Dfile    ='viscA4Dfld.bin',
(PID.TID 0000.0001) > viscA4Zfile    ='viscA4Zfld.bin',
(PID.TID 0000.0001) > geothermalFile='geothermalFlux.bin',
(PID.TID 0000.0001) >#
(PID.TID 0000.0001) > &
(PID.TID 0000.0001) 
(PID.TID 0000.0001)  INI_PARMS ; starts to read PARM01
(PID.TID 0000.0001)  INI_PARMS ; read PARM01 : OK
(PID.TID 0000.0001)  INI_PARMS ; starts to read PARM02
(PID.TID 0000.0001)  INI_PARMS ; read PARM02 : OK
(PID.TID 0000.0001)  INI_PARMS ; starts to read PARM03
(PID.TID 0000.0001)  INI_PARMS ; read PARM03 : OK
(PID.TID 0000.0001)  INI_PARMS ; starts to read PARM04
(PID.TID 0000.0001)  INI_PARMS ; read PARM04 : OK
(PID.TID 0000.0001)  INI_PARMS ; starts to read PARM05
(PID.TID 0000.0001)  INI_PARMS ; read PARM05 : OK
(PID.TID 0000.0001)  INI_PARMS: finished reading file "data"
(PID.TID 0000.0001)  PACKAGES_BOOT: opening data.pkg
(PID.TID 0000.0001)  OPEN_COPY_DATA_FILE: opening file data.pkg
(PID.TID 0000.0001) // =======================================================
(PID.TID 0000.0001) // Parameter file "data.pkg"
(PID.TID 0000.0001) // =======================================================
(PID.TID 0000.0001) ># Packages
(PID.TID 0000.0001) > &PACKAGES
(PID.TID 0000.0001) > useGMRedi          = .TRUE.,
(PID.TID 0000.0001) > useGGL90           = .TRUE.,
(PID.TID 0000.0001) > useSALT_PLUME      = .TRUE.,
(PID.TID 0000.0001) > useDiagnostics     = .TRUE.,
(PID.TID 0000.0001) > useCTRL            = .TRUE.,
(PID.TID 0000.0001) > &
(PID.TID 0000.0001) 
(PID.TID 0000.0001)  PACKAGES_BOOT: finished reading data.pkg
(PID.TID 0000.0001)  PACKAGES_BOOT: On/Off package Summary
 --------  pkgs with a standard "usePKG" On/Off switch in "data.pkg":  --------
 pkg/ggl90                compiled   and   used ( useGGL90                 = T )
 pkg/gmredi               compiled   and   used ( useGMRedi                = T )
 pkg/ctrl                 compiled   and   used ( useCTRL                  = T )
 pkg/salt_plume           compiled   and   used ( useSALT_PLUME            = T )
 pkg/diagnostics          compiled   and   used ( useDiagnostics           = T )
 -------- pkgs without standard "usePKG" On/Off switch in "data.pkg":  --------
 pkg/generic_advdiff      compiled   and   used ( useGAD                   = T )
 pkg/mom_common           compiled   and   used ( momStepping              = T )
 pkg/mom_vecinv           compiled   and   used ( +vectorInvariantMomentum = T )
 pkg/monitor              compiled   and   used ( monitorFreq > 0.         = T )
 pkg/debug                compiled but not used ( debugMode                = F )
 pkg/exch2                compiled   and   used
 pkg/rw                   compiled   and   used
 pkg/mdsio                compiled   and   used
(PID.TID 0000.0001)  PACKAGES_BOOT: End of package Summary
(PID.TID 0000.0001) 
(PID.TID 0000.0001)  GGL90_READPARMS: opening data.ggl90
(PID.TID 0000.0001)  OPEN_COPY_DATA_FILE: opening file data.ggl90
(PID.TID 0000.0001) // =======================================================
(PID.TID 0000.0001) // Parameter file "data.ggl90"
(PID.TID 0000.0001) // =======================================================
(PID.TID 0000.0001) ># =====================================================================
(PID.TID 0000.0001) ># | Parameters for Gaspar et al. (1990)'s TKE vertical mixing scheme  |
(PID.TID 0000.0001) ># =====================================================================
(PID.TID 0000.0001) > &GGL90_PARM01
(PID.TID 0000.0001) ># GGL90taveFreq = 345600000.,
(PID.TID 0000.0001) ># GGL90dumpFreq = 86400.,
(PID.TID 0000.0001) ># GGL90writeState=.FALSE.,
(PID.TID 0000.0001) ># GGL90diffTKEh=3.e3,
(PID.TID 0000.0001) > GGL90alpha=30.,
(PID.TID 0000.0001) ># GGL90TKEFile = 'TKE_init.bin',
(PID.TID 0000.0001) > GGL90TKEmin  = 1.e-7,
(PID.TID 0000.0001) > GGL90TKEbottom = 1.e-6,
(PID.TID 0000.0001) > mxlMaxFlag =2,
(PID.TID 0000.0001) > mxlSurfFlag=.TRUE.,
(PID.TID 0000.0001) > &
(PID.TID 0000.0001) 
(PID.TID 0000.0001)  GGL90_READPARMS ; starts to read GGL90_PARM01
(PID.TID 0000.0001)  GGL90_READPARMS: read GGL90_PARM01 : OK
(PID.TID 0000.0001)  GGL90_READPARMS: finished reading data.ggl90
(PID.TID 0000.0001) // =======================================================
(PID.TID 0000.0001) // GGL90 configuration
(PID.TID 0000.0001) // =======================================================
(PID.TID 0000.0001) GGL90dumpFreq =   /* GGL90 state write out interval ( s ). */
(PID.TID 0000.0001)                 0.000000000000000E+00
(PID.TID 0000.0001)     ;
(PID.TID 0000.0001) GGL90taveFreq =   /* GGL90 averaging interval ( s ). */
(PID.TID 0000.0001)                 0.000000000000000E+00
(PID.TID 0000.0001)     ;
(PID.TID 0000.0001) GGL90mixingMAPS =   /* GGL90 IO flag. */
(PID.TID 0000.0001)                   F
(PID.TID 0000.0001)     ;
(PID.TID 0000.0001) GGL90writeState =   /* GGL90 IO flag. */
(PID.TID 0000.0001)                   F
(PID.TID 0000.0001)     ;
(PID.TID 0000.0001) GGL90ck =   /* GGL90 viscosity parameter. */
(PID.TID 0000.0001)                 1.000000000000000E-01
(PID.TID 0000.0001)     ;
(PID.TID 0000.0001) GGL90ceps =   /* GGL90 dissipation parameter. */
(PID.TID 0000.0001)                 7.000000000000000E-01
(PID.TID 0000.0001)     ;
(PID.TID 0000.0001) GGL90alpha =   /* GGL90 TKE diffusivity parameter. */
(PID.TID 0000.0001)                 3.000000000000000E+01
(PID.TID 0000.0001)     ;
(PID.TID 0000.0001) GGL90m2 =   /* GGL90 wind stress to vertical stress ratio. */
(PID.TID 0000.0001)                 3.750000000000000E+00
(PID.TID 0000.0001)     ;
(PID.TID 0000.0001) GGL90TKEmin =   /* GGL90 minimum kinetic energy ( m^2/s^2 ). */
(PID.TID 0000.0001)                 1.000000000000000E-07
(PID.TID 0000.0001)     ;
(PID.TID 0000.0001) GGL90TKEsurfMin =   /* GGL90 minimum surface kinetic energy ( m^2/s^2 ). */
(PID.TID 0000.0001)                 1.000000000000000E-04
(PID.TID 0000.0001)     ;
(PID.TID 0000.0001) GGL90TKEbottom =   /* GGL90 bottom kinetic energy ( m^2/s^2 ). */
(PID.TID 0000.0001)                 1.000000000000000E-06
(PID.TID 0000.0001)     ;
(PID.TID 0000.0001) GGL90viscMax =   /* GGL90 upper limit for viscosity ( m^2/s ). */
(PID.TID 0000.0001)                 1.000000000000000E+02
(PID.TID 0000.0001)     ;
(PID.TID 0000.0001) GGL90diffMax =   /* GGL90 upper limit for diffusivity ( m^2/s ). */
(PID.TID 0000.0001)                 1.000000000000000E+02
(PID.TID 0000.0001)     ;
(PID.TID 0000.0001) GGL90diffTKEh =   /* GGL90 horizontal diffusivity for TKE ( m^2/s ). */
(PID.TID 0000.0001)                 0.000000000000000E+00
(PID.TID 0000.0001)     ;
(PID.TID 0000.0001) GGL90mixingLengthMin =   /* GGL90 minimum mixing length ( m ). */
(PID.TID 0000.0001)                 1.000000000000000E-08
(PID.TID 0000.0001)     ;
(PID.TID 0000.0001) mxlMaxFlag =   /* Flag for limiting mixing-length method */
(PID.TID 0000.0001)                       2
(PID.TID 0000.0001)     ;
(PID.TID 0000.0001) mxlSurfFlag =   /* GGL90 flag for near surface mixing. */
(PID.TID 0000.0001)                   T
(PID.TID 0000.0001)     ;
(PID.TID 0000.0001) calcMeanVertShear = /* calc Mean of Vert.Shear (vs shear of Mean flow) */
(PID.TID 0000.0001)                   F
(PID.TID 0000.0001)     ;
(PID.TID 0000.0001) GGL90: GGL90TKEFile =
(PID.TID 0000.0001) GGL90writeState =   /* GGL90 Boundary condition flag. */
(PID.TID 0000.0001)                   T
(PID.TID 0000.0001)     ;
(PID.TID 0000.0001) // =======================================================
(PID.TID 0000.0001) // End of GGL90 config. summary
(PID.TID 0000.0001) // =======================================================
(PID.TID 0000.0001) 
(PID.TID 0000.0001)  GM_READPARMS: opening data.gmredi
(PID.TID 0000.0001)  OPEN_COPY_DATA_FILE: opening file data.gmredi
(PID.TID 0000.0001) // =======================================================
(PID.TID 0000.0001) // Parameter file "data.gmredi"
(PID.TID 0000.0001) // =======================================================
(PID.TID 0000.0001) ># GM+Redi package parameters:
(PID.TID 0000.0001) >#     GM_Small_Number  :: epsilon used in computing the slope
(PID.TID 0000.0001) >#     GM_slopeSqCutoff :: slope^2 cut-off value
(PID.TID 0000.0001) >
(PID.TID 0000.0001) >#-from MOM :
(PID.TID 0000.0001) ># GM_background_K: 	G & Mc.W  diffusion coefficient
(PID.TID 0000.0001) ># GM_maxSlope    :	max slope of isopycnals
(PID.TID 0000.0001) ># GM_Scrit       :	transition for scaling diffusion coefficient
(PID.TID 0000.0001) ># GM_Sd          :	half width scaling for diffusion coefficient
(PID.TID 0000.0001) ># GM_taper_scheme:	slope clipping or one of the tapering schemes
(PID.TID 0000.0001) ># GM_Kmin_horiz  :	horizontal diffusion minimum value
(PID.TID 0000.0001) >
(PID.TID 0000.0001) >#-Option parameters (needs to "define" options in GMREDI_OPTIONS.h")
(PID.TID 0000.0001) ># GM_isopycK     :	isopycnal diffusion coefficient (default=GM_background_K)
(PID.TID 0000.0001) ># GM_AdvForm     :	turn on GM Advective form       (default=Skew flux form)
(PID.TID 0000.0001) >
(PID.TID 0000.0001) > &GM_PARM01
(PID.TID 0000.0001) >  GM_Small_Number  = 1.D-20,
(PID.TID 0000.0001) >  GM_slopeSqCutoff = 1.D+08,
(PID.TID 0000.0001) >  GM_AdvForm         = .TRUE.,
(PID.TID 0000.0001) >  GM_isopycK         = 1.D+3,
(PID.TID 0000.0001) >  GM_background_K    = 1.D+3,
(PID.TID 0000.0001) >  GM_maxSlope        = 4.D-3,
(PID.TID 0000.0001) >  GM_taper_scheme    = 'stableGmAdjTap',
(PID.TID 0000.0001) >  GM_Kmin_horiz      = 100.,
(PID.TID 0000.0001) >  GM_Scrit           = 4.D-3,
(PID.TID 0000.0001) >  GM_Sd              = 1.D-3,
(PID.TID 0000.0001) >#
(PID.TID 0000.0001) >###  GM_Visbeck_alpha   = 1.5D-2,
(PID.TID 0000.0001) >###  GM_Visbeck_alpha   = 0.D0,
(PID.TID 0000.0001) >###  GM_Visbeck_length  = 2.D+5,
(PID.TID 0000.0001) >###  GM_Visbeck_depth   = 1.D+3,
(PID.TID 0000.0001) >###  GM_Visbeck_maxval_K= 2.5D+3,
(PID.TID 0000.0001) > &
(PID.TID 0000.0001) >
(PID.TID 0000.0001) >
(PID.TID 0000.0001) 
(PID.TID 0000.0001)  GM_READPARMS: finished reading data.gmredi
(PID.TID 0000.0001) SALT_PLUME_READPARMS: opening data.salt_plume
(PID.TID 0000.0001)  OPEN_COPY_DATA_FILE: opening file data.salt_plume
(PID.TID 0000.0001) // =======================================================
(PID.TID 0000.0001) // Parameter file "data.salt_plume"
(PID.TID 0000.0001) // =======================================================
(PID.TID 0000.0001) > &SALT_PLUME_PARM01
(PID.TID 0000.0001) > SPsalFRAC= 0.5D0,
(PID.TID 0000.0001) > &
(PID.TID 0000.0001) 
(PID.TID 0000.0001) SALT_PLUME_READPARMS: finished reading data.salt_plume
(PID.TID 0000.0001) OPTIM_READPARMS: opening data.optim
(PID.TID 0000.0001)  OPEN_COPY_DATA_FILE: opening file data.optim
(PID.TID 0000.0001) // =======================================================
(PID.TID 0000.0001) // Parameter file "data.optim"
(PID.TID 0000.0001) // =======================================================
(PID.TID 0000.0001) >#
(PID.TID 0000.0001) ># ********************************
(PID.TID 0000.0001) ># Off-line optimization parameters
(PID.TID 0000.0001) ># ********************************
(PID.TID 0000.0001) > &OPTIM
(PID.TID 0000.0001) > optimcycle=12,
(PID.TID 0000.0001) > &
(PID.TID 0000.0001) 
(PID.TID 0000.0001) OPTIM_READPARMS: finished reading data.optim
(PID.TID 0000.0001) CTRL_READPARMS: opening data.ctrl
(PID.TID 0000.0001)  OPEN_COPY_DATA_FILE: opening file data.ctrl
(PID.TID 0000.0001) // =======================================================
(PID.TID 0000.0001) // Parameter file "data.ctrl"
(PID.TID 0000.0001) // =======================================================
(PID.TID 0000.0001) ># *********************
(PID.TID 0000.0001) ># ECCO control variables
(PID.TID 0000.0001) ># *********************
(PID.TID 0000.0001) > &ctrl_nml
(PID.TID 0000.0001) > doSinglePrecTapelev=.TRUE.,
(PID.TID 0000.0001) >#to start from given xx*00.data files
(PID.TID 0000.0001) >  doinitxx = .FALSE.,
(PID.TID 0000.0001) >  doMainUnpack = .FALSE.,
(PID.TID 0000.0001) >#to start from given ecco_ctrl... files
(PID.TID 0000.0001) ># doinitxx = .FALSE.,
(PID.TID 0000.0001) > &
(PID.TID 0000.0001) >#
(PID.TID 0000.0001) ># *********************
(PID.TID 0000.0001) ># names for ctrl_pack/unpack
(PID.TID 0000.0001) ># *********************
(PID.TID 0000.0001) > &ctrl_packnames
(PID.TID 0000.0001) > &
(PID.TID 0000.0001) >#
(PID.TID 0000.0001) ># *********************
(PID.TID 0000.0001) ># names for CTRL_GENARR2D,3D CTRL_GENTIM2D
(PID.TID 0000.0001) ># *********************
(PID.TID 0000.0001) > &CTRL_NML_GENARR
(PID.TID 0000.0001) >#
(PID.TID 0000.0001) > xx_genarr3d_weight(1) = 'wt_ones.data',
(PID.TID 0000.0001) > xx_genarr3d_file(1)='xx_kapgm',
(PID.TID 0000.0001) > mult_genarr3d(1) = 0.,
(PID.TID 0000.0001) >#
(PID.TID 0000.0001) > xx_genarr3d_weight(2) = 'wt_ones.data',
(PID.TID 0000.0001) > xx_genarr3d_file(2)='xx_kapredi',
(PID.TID 0000.0001) > mult_genarr3d(2) = 0.,
(PID.TID 0000.0001) >#
(PID.TID 0000.0001) > xx_genarr3d_weight(3) = 'wt_ones.data',
(PID.TID 0000.0001) > xx_genarr3d_file(3)='xx_diffkr',
(PID.TID 0000.0001) > mult_genarr3d(3) = 0.,
(PID.TID 0000.0001) >#
(PID.TID 0000.0001) > &
(PID.TID 0000.0001) 
(PID.TID 0000.0001) CTRL_READPARMS: finished reading data.ctrl
(PID.TID 0000.0001)  DIAGNOSTICS_READPARMS: opening data.diagnostics
(PID.TID 0000.0001)  OPEN_COPY_DATA_FILE: opening file data.diagnostics
(PID.TID 0000.0001) // =======================================================
(PID.TID 0000.0001) // Parameter file "data.diagnostics"
(PID.TID 0000.0001) // =======================================================
(PID.TID 0000.0001) ># Diagnostic Package Choices
(PID.TID 0000.0001) >#-----------------
(PID.TID 0000.0001) ># for each output-stream:
(PID.TID 0000.0001) >#  filename(n) : prefix of the output file name (only 8.c long) for outp.stream n
(PID.TID 0000.0001) >#  frequency(n):< 0 : write snap-shot output every multiple of |frequency| (iter)
(PID.TID 0000.0001) >#               > 0 : write time-average output every multiple of frequency (iter)
(PID.TID 0000.0001) >#  levels(:,n) : list of levels to write to file (Notes: declared as REAL)
(PID.TID 0000.0001) >#                 when this entry is missing, select all common levels of this list
(PID.TID 0000.0001) >#  fields(:,n) : list of diagnostics fields (8.c) (see "available_diagnostics" file
(PID.TID 0000.0001) >#                 for the list of all available diag. in this particular config)
(PID.TID 0000.0001) >#--------------------------------------------------------------------
(PID.TID 0000.0001) >#
(PID.TID 0000.0001) > &diagnostics_list
(PID.TID 0000.0001) >#
(PID.TID 0000.0001) >   dumpatlast = .TRUE.,
(PID.TID 0000.0001) >   diagMdsDir = 'diags',
(PID.TID 0000.0001) >#---
(PID.TID 0000.0001) >  frequency(1) = 2635200.0,
(PID.TID 0000.0001) >   fields(1:9,1) = 'ETAN    ',
(PID.TID 0000.0001) >#stuff that is not quite state variables (and may not be quite
(PID.TID 0000.0001) >#synchroneous) but are added here to reduce number of files
(PID.TID 0000.0001) >                 'DETADT2 ','PHIBOT  ',
(PID.TID 0000.0001) >                 'MXLDEPTH','oceSPDep',
(PID.TID 0000.0001) >                 'oceQnet ','oceFWflx',
(PID.TID 0000.0001) >                 'oceTAUX ','oceTAUY ',
(PID.TID 0000.0001) >   filename(1) = 'state_2d_set1',
(PID.TID 0000.0001) >#---
(PID.TID 0000.0001) >  frequency(2) = 2635200.0,
(PID.TID 0000.0001) >   fields(1:3,2) = 'THETA   ','SALT    ',
(PID.TID 0000.0001) >#stuff that is not quite state variables (and may not be quite
(PID.TID 0000.0001) >#synchroneous) but are added here to reduce file number
(PID.TID 0000.0001) >                 'DRHODR  ',
(PID.TID 0000.0001) >#                'KPPviscA','KPPdiffT','KPPdiffTS',
(PID.TID 0000.0001) >#                'GGL90TKE','GGL90Lmx','GGL90Prl',
(PID.TID 0000.0001) >#                'GGL90ArU','GGL90ArV','GGL90Kr ',
(PID.TID 0000.0001) >   filename(2) = 'state_3d_set1',
(PID.TID 0000.0001) >#---
(PID.TID 0000.0001) >  frequency(3) = 2635200.0,
(PID.TID 0000.0001) >   fields(1:5,3) = 'UVELMASS','VVELMASS','WVELMASS',
(PID.TID 0000.0001) >                 'GM_PsiX ','GM_PsiY ',
(PID.TID 0000.0001) >#uvel is approximately uvelmass divided by initial hfac, so we dont output the former
(PID.TID 0000.0001) >#                'UVEL    ','VVEL    ','WVEL     ',
(PID.TID 0000.0001) >#full 3D temperature fluxes : 'DFxE_TH ','DFyE_TH ','DFrE_TH ','DFrI_TH ','ADVx_TH ','ADVy_TH ','ADVr_TH ',
(PID.TID 0000.0001) >#but for present computations I only need the vertically integrated horizontal components (see trsp_3d_set2)
(PID.TID 0000.0001) >   filename(3) = 'trsp_3d_set1',
(PID.TID 0000.0001) >#---
(PID.TID 0000.0001) >  frequency(4) = 2635200.0,
(PID.TID 0000.0001) >   fields(1:8,4) = 'DFxE_TH ','DFyE_TH ','ADVx_TH ','ADVy_TH ',
(PID.TID 0000.0001) >                 'DFxE_SLT','DFyE_SLT','ADVx_SLT','ADVy_SLT',
(PID.TID 0000.0001) >   filename(4) = 'trsp_3d_set2',
(PID.TID 0000.0001) >#vertically integrate fields we only use to compute vertically integr.
(PID.TID 0000.0001) >#meridional transports (also omit vertical transports, both to save space)
(PID.TID 0000.0001) >#---
(PID.TID 0000.0001) >  frequency(5) = -2635200.0,
(PID.TID 0000.0001) >   fields(1:2,5) = 'ETAN    ',
(PID.TID 0000.0001) >                   'PHIBOT  ',
(PID.TID 0000.0001) >#  filename(5) = 'budg2d_snap_set1',
(PID.TID 0000.0001) >   timePhase(5)= 0.,
(PID.TID 0000.0001) >   fileFlags(5) = 'D       ',
(PID.TID 0000.0001) >#---
(PID.TID 0000.0001) >  frequency(6) = -2635200.0,
(PID.TID 0000.0001) >   fields(1:2,6) = 'THETA   ','SALT    ',
(PID.TID 0000.0001) >#  filename(6) = 'budg2d_snap_set2',
(PID.TID 0000.0001) >   timePhase(6)= 0.,
(PID.TID 0000.0001) >   fileFlags(6) = 'DI      ',
(PID.TID 0000.0001) >#---
(PID.TID 0000.0001) >  frequency(7) = 2635200.0,
(PID.TID 0000.0001) >   fields(1:4,7) = 'oceFWflx','TFLUX   ',
(PID.TID 0000.0001) >                   'SFLUX   ','oceQsw  ',
(PID.TID 0000.0001) >#  filename(7) = 'budg2d_zflux_set1',
(PID.TID 0000.0001) >   fileFlags(7) = 'D       ',
(PID.TID 0000.0001) >#---
(PID.TID 0000.0001) >  frequency(8) = 2635200.0,
(PID.TID 0000.0001) >   fields(1:13,8) ='UVELMASS','VVELMASS',
(PID.TID 0000.0001) >                 'ADVx_TH ','ADVy_TH ','DFxE_TH ','DFyE_TH ',
(PID.TID 0000.0001) >                 'ADVx_SLT','ADVy_SLT','DFxE_SLT','DFyE_SLT',
(PID.TID 0000.0001) >#the following are not transports but tendencies
(PID.TID 0000.0001) >                 'oceSPtnd','AB_gT   ','AB_gS   ',
(PID.TID 0000.0001) >#  filename(8) = 'budg2d_hflux_set2',
(PID.TID 0000.0001) >   fileFlags(8) = 'DI      ',
(PID.TID 0000.0001) >#---
(PID.TID 0000.0001) ># this one is important because it activates the vertical advection diags
(PID.TID 0000.0001) >  frequency(9) = 2635200.0,
(PID.TID 0000.0001) >   fields(1:7,9) = 'ADVr_TH ','DFrE_TH ','DFrI_TH ',
(PID.TID 0000.0001) >                  'ADVr_SLT','DFrE_SLT','DFrI_SLT',
(PID.TID 0000.0001) >                  'WVELMASS',
(PID.TID 0000.0001) >#  filename(9) = 'budg2d_zflux_set3_11',
(PID.TID 0000.0001) >   levels(1, 9)= 11.,
(PID.TID 0000.0001) >   fileFlags(9) = 'D       ',
(PID.TID 0000.0001) >#---
(PID.TID 0000.0001) >  frequency(10) = 2635200.0,
(PID.TID 0000.0001) >   fields(1:6,10) ='SRELAX  ','TRELAX  ','WTHMASS ','WSLTMASS',
(PID.TID 0000.0001) >                 'oceSflux','oceQnet ',
(PID.TID 0000.0001) >#  filename(10) = 'budg2d_zflux_set2',
(PID.TID 0000.0001) >   fileFlags(10) = 'D       ',
(PID.TID 0000.0001) >#---
(PID.TID 0000.0001) >  frequency(11) = 2635200.0,
(PID.TID 0000.0001) >   fields(1:13,11) ='UVELMASS','VVELMASS',
(PID.TID 0000.0001) >                 'ADVx_TH ','ADVy_TH ','DFxE_TH ','DFyE_TH ',
(PID.TID 0000.0001) >                 'ADVx_SLT','ADVy_SLT','DFxE_SLT','DFyE_SLT',
(PID.TID 0000.0001) >                 'oceSPtnd','AB_gT   ','AB_gS   ',
(PID.TID 0000.0001) >#  filename(11) = 'budg2d_hflux_set3_11',
(PID.TID 0000.0001) >   levels(1:40,11) = 11.,12.,13.,14.,15.,16.,17.,18.,19.,20.,
(PID.TID 0000.0001) >                     21.,22.,23.,24.,25.,26.,27.,28.,29.,30.,
(PID.TID 0000.0001) >                     31.,32.,33.,34.,35.,36.,37.,38.,39.,40.,
(PID.TID 0000.0001) >                     41.,42.,43.,44.,45.,46.,47.,48.,49.,50.,
(PID.TID 0000.0001) >   fileFlags(11) = 'DI      ',
(PID.TID 0000.0001) >#---
(PID.TID 0000.0001) >  frequency(12) = -2635200.0,
(PID.TID 0000.0001) >   fields(1:2,12) = 'THETA   ','SALT    ',
(PID.TID 0000.0001) >#  filename(12) = 'budg2d_snap_set3_11',
(PID.TID 0000.0001) >   timePhase(12)= 0.,
(PID.TID 0000.0001) >   levels(1:40,12) = 11.,12.,13.,14.,15.,16.,17.,18.,19.,20.,
(PID.TID 0000.0001) >                     21.,22.,23.,24.,25.,26.,27.,28.,29.,30.,
(PID.TID 0000.0001) >                     31.,32.,33.,34.,35.,36.,37.,38.,39.,40.,
(PID.TID 0000.0001) >                     41.,42.,43.,44.,45.,46.,47.,48.,49.,50.,
(PID.TID 0000.0001) >   fileFlags(12) = 'DI      ',
(PID.TID 0000.0001) >#---
(PID.TID 0000.0001) >  frequency(13) = 2635200.0,
(PID.TID 0000.0001) >   fields(1:8,13) = 'DFxE_TH ','DFyE_TH ','ADVx_TH ','ADVy_TH ',
(PID.TID 0000.0001) >                 'DFxE_SLT','DFyE_SLT','ADVx_SLT','ADVy_SLT',
(PID.TID 0000.0001) >#  filename(13) = 'trsp_2d_set1',
(PID.TID 0000.0001) >#vertically integrate fields we only use to compute vertically integr.
(PID.TID 0000.0001) >#meridional transports (also omit vertical transports, both to save space)
(PID.TID 0000.0001) >   fileFlags(13) = ' I      ',
(PID.TID 0000.0001) >#---
(PID.TID 0000.0001) >  frequency(14) = 2635200.0,
(PID.TID 0000.0001) >   fields(1:3,14) = 'RHOAnoma','PHIHYD  ','oceSPtnd',
(PID.TID 0000.0001) >#  filename(14) = 'state_3d_set2',
(PID.TID 0000.0001) >#---
(PID.TID 0000.0001) >  frequency(15) = 2635200.0,
(PID.TID 0000.0001) >   fields(1:7,15) = 'ADVr_TH ','DFrE_TH ','DFrI_TH ',
(PID.TID 0000.0001) >        'ADVr_SLT','DFrE_SLT','DFrI_SLT','WVELMASS',
(PID.TID 0000.0001) >#  filename(15) = 'trsp_3d_set3',
(PID.TID 0000.0001) >#---
(PID.TID 0000.0001) >  frequency(16) = 2635200.0,
(PID.TID 0000.0001) >   fields(1:4,16) = 'TFLUX   ','SFLUX   ',
(PID.TID 0000.0001) >        'oceQsw  ','oceSPflx',
(PID.TID 0000.0001) >#  filename(16) = 'state_2d_set2',
(PID.TID 0000.0001) >#---
(PID.TID 0000.0001) > &
(PID.TID 0000.0001) >#
(PID.TID 0000.0001) >#
(PID.TID 0000.0001) ># Parameter for Diagnostics of per level statistics:
(PID.TID 0000.0001) >#-----------------
(PID.TID 0000.0001) ># for each output-stream:
(PID.TID 0000.0001) >#  stat_fname(n) : prefix of the output file name (only 8.c long) for outp.stream n
(PID.TID 0000.0001) >#  stat_freq(n):< 0 : write snap-shot output every |stat_freq| seconds
(PID.TID 0000.0001) >#               > 0 : write time-average output every stat_freq seconds
(PID.TID 0000.0001) >#  stat_phase(n)    : write at time = stat_phase + multiple of |stat_freq|
(PID.TID 0000.0001) >#  stat_region(:,n) : list of "regions" (default: 1 region only=global)
(PID.TID 0000.0001) >#  stat_fields(:,n) : list of diagnostics fields (8.c) (see "available_diagnostics.log"
(PID.TID 0000.0001) >#                 file for the list of all available diag. in this particular config)
(PID.TID 0000.0001) >#-----------------
(PID.TID 0000.0001) > &DIAG_STATIS_PARMS
(PID.TID 0000.0001) ># diagSt_regMaskFile='basin_masks_eccollc_90x50.bin',
(PID.TID 0000.0001) ># nSetRegMskFile=1,
(PID.TID 0000.0001) ># set_regMask(1)= 1,  1,  1,  1,  1,  1,  1,  1,  1,
(PID.TID 0000.0001) >#                 1,  1,  1,  1,  1,  1,  1,  1
(PID.TID 0000.0001) ># val_regMask(1)= 1., 2., 3., 4., 5., 6., 7., 8., 9.,
(PID.TID 0000.0001) >#                10.,11.,12.,13.,14.,15.,16.,17.
(PID.TID 0000.0001) >##---
(PID.TID 0000.0001) ># stat_fields(1,1)= 'ETAN    ','ETANSQ  ','DETADT2 ',
(PID.TID 0000.0001) >#                   'UVEL    ','VVEL    ','WVEL    ',
(PID.TID 0000.0001) >#                   'THETA   ','SALT    ',
(PID.TID 0000.0001) >#    stat_fname(1)= 'dynStDiag',
(PID.TID 0000.0001) >#     stat_freq(1)= 3153600.,
(PID.TID 0000.0001) ># stat_region(1,1)=  1, 2, 3, 4, 5, 6, 7, 8, 9,
(PID.TID 0000.0001) >#                   10,11,12,13,14,15,16,17
(PID.TID 0000.0001) >##---
(PID.TID 0000.0001) ># stat_fields(1,2)= 'oceTAUX ','oceTAUY ',
(PID.TID 0000.0001) >#                   'surForcT','surForcS','TFLUX   ','SFLUX   ',
(PID.TID 0000.0001) >#                   'oceQnet ','oceSflux','oceFWflx',
(PID.TID 0000.0001) >#    stat_fname(2)= 'surfStDiag',
(PID.TID 0000.0001) >#     stat_freq(2)= 3153600.,
(PID.TID 0000.0001) ># stat_region(1,2)=  1, 2, 3, 4, 5, 6, 7, 8, 9,
(PID.TID 0000.0001) >#                   10,11,12,13,14,15,16,17
(PID.TID 0000.0001) > &
(PID.TID 0000.0001) 
(PID.TID 0000.0001) S/R DIAGNOSTICS_READPARMS, read namelist "diagnostics_list": start
(PID.TID 0000.0001) S/R DIAGNOSTICS_READPARMS, read namelist "diagnostics_list": OK
(PID.TID 0000.0001) S/R DIAGNOSTICS_READPARMS, read namelist "DIAG_STATIS_PARMS": start
(PID.TID 0000.0001) S/R DIAGNOSTICS_READPARMS, read namelist "DIAG_STATIS_PARMS": OK
(PID.TID 0000.0001)  DIAGNOSTICS_READPARMS: global parameter summary:
(PID.TID 0000.0001)  dumpAtLast = /* always write time-ave diags at the end */
(PID.TID 0000.0001)                   T
(PID.TID 0000.0001)     ;
(PID.TID 0000.0001)  diag_mnc =   /* write NetCDF output files */
(PID.TID 0000.0001)                   F
(PID.TID 0000.0001)     ;
(PID.TID 0000.0001)  diagMdsDir = /* directory for mds diagnostics output */
(PID.TID 0000.0001)               'diags'
(PID.TID 0000.0001)     ;
(PID.TID 0000.0001)  diagMdsDirCreate = /* call mkdir to create diagMdsDir */
(PID.TID 0000.0001)                   T
(PID.TID 0000.0001)     ;
(PID.TID 0000.0001)  useMissingValue = /* put MissingValue where mask = 0 */
(PID.TID 0000.0001)                   F
(PID.TID 0000.0001)     ;
(PID.TID 0000.0001)  diagCG_maxIters = /* max number of iters in diag_cg2d */
(PID.TID 0000.0001)                     300
(PID.TID 0000.0001)     ;
(PID.TID 0000.0001)  diagCG_resTarget = /* residual target for diag_cg2d */
(PID.TID 0000.0001)                 1.000000000000000E-07
(PID.TID 0000.0001)     ;
(PID.TID 0000.0001)  diagCG_pcOffDFac = /* preconditioner off-diagonal factor */
(PID.TID 0000.0001)                 9.611687812379854E-01
(PID.TID 0000.0001)     ;
(PID.TID 0000.0001) -----------------------------------------------------
(PID.TID 0000.0001)  DIAGNOSTICS_READPARMS: active diagnostics summary:
(PID.TID 0000.0001) -----------------------------------------------------
(PID.TID 0000.0001) Creating Output Stream: state_2d_set1
(PID.TID 0000.0001) Output Frequency:    2635200.000000 ; Phase:           0.000000
(PID.TID 0000.0001)  Averaging Freq.:    2635200.000000 , Phase:           0.000000 , Cycle:   1
(PID.TID 0000.0001)  missing value: -9.990000000000E+02
(PID.TID 0000.0001)  Levels:    will be set later
(PID.TID 0000.0001)  Fields:    ETAN     DETADT2  PHIBOT   MXLDEPTH oceSPDep oceQnet  oceFWflx oceTAUX  oceTAUY
(PID.TID 0000.0001) Creating Output Stream: state_3d_set1
(PID.TID 0000.0001) Output Frequency:    2635200.000000 ; Phase:           0.000000
(PID.TID 0000.0001)  Averaging Freq.:    2635200.000000 , Phase:           0.000000 , Cycle:   1
(PID.TID 0000.0001)  missing value: -9.990000000000E+02
(PID.TID 0000.0001)  Levels:    will be set later
(PID.TID 0000.0001)  Fields:    THETA    SALT     DRHODR
(PID.TID 0000.0001) Creating Output Stream: trsp_3d_set1
(PID.TID 0000.0001) Output Frequency:    2635200.000000 ; Phase:           0.000000
(PID.TID 0000.0001)  Averaging Freq.:    2635200.000000 , Phase:           0.000000 , Cycle:   1
(PID.TID 0000.0001)  missing value: -9.990000000000E+02
(PID.TID 0000.0001)  Levels:    will be set later
(PID.TID 0000.0001)  Fields:    UVELMASS VVELMASS WVELMASS GM_PsiX  GM_PsiY
(PID.TID 0000.0001) Creating Output Stream: trsp_3d_set2
(PID.TID 0000.0001) Output Frequency:    2635200.000000 ; Phase:           0.000000
(PID.TID 0000.0001)  Averaging Freq.:    2635200.000000 , Phase:           0.000000 , Cycle:   1
(PID.TID 0000.0001)  missing value: -9.990000000000E+02
(PID.TID 0000.0001)  Levels:    will be set later
(PID.TID 0000.0001)  Fields:    DFxE_TH  DFyE_TH  ADVx_TH  ADVy_TH  DFxE_SLT DFyE_SLT ADVx_SLT ADVy_SLT
(PID.TID 0000.0001) -----------------------------------------------------
(PID.TID 0000.0001)  DIAGNOSTICS_READPARMS: statistics diags. summary:
(PID.TID 0000.0001) -----------------------------------------------------
(PID.TID 0000.0001) 
(PID.TID 0000.0001) SET_PARMS: done
 ==> SYSTEM CALL (from DIAGNOSTICS_INI_IO): > mkdir -p diags <
(PID.TID 0000.0001) 
(PID.TID 0000.0001) Enter INI_VERTICAL_GRID: setInterFDr=    T ; setCenterDr=    F
(PID.TID 0000.0001) tile:   4 ; Read from file tile001.mitgrid
(PID.TID 0000.0001)   => xC yC dxF dyF rA xG yG dxV dyU rAz dxC dyC rAw rAs dxG dyG
(PID.TID 0000.0001) %MON XC_max                       =   1.7997758946678E+02
(PID.TID 0000.0001) %MON XC_min                       =  -1.7998895680928E+02
(PID.TID 0000.0001) %MON XC_mean                      =  -6.8997670631350E+00
(PID.TID 0000.0001) %MON XC_sd                        =   1.0548127462941E+02
(PID.TID 0000.0001) %MON XG_max                       =   1.8000000000000E+02
(PID.TID 0000.0001) %MON XG_min                       =  -1.7999919444240E+02
(PID.TID 0000.0001) %MON XG_mean                      =  -6.3521159278861E+00
(PID.TID 0000.0001) %MON XG_sd                        =   1.0549598176576E+02
(PID.TID 0000.0001) %MON DXC_max                      =   1.1117680031365E+05
(PID.TID 0000.0001) %MON DXC_min                      =   1.3362789164732E+04
(PID.TID 0000.0001) %MON DXC_mean                     =   7.1345115143606E+04
(PID.TID 0000.0001) %MON DXC_sd                       =   2.6107013089865E+04
(PID.TID 0000.0001) %MON DXF_max                      =   1.1117680031365E+05
(PID.TID 0000.0001) %MON DXF_min                      =   1.3491575949394E+04
(PID.TID 0000.0001) %MON DXF_mean                     =   7.1334806791260E+04
(PID.TID 0000.0001) %MON DXF_sd                       =   2.6121349328995E+04
(PID.TID 0000.0001) %MON DXG_max                      =   1.1117747335204E+05
(PID.TID 0000.0001) %MON DXG_min                      =   1.0930409249570E+04
(PID.TID 0000.0001) %MON DXG_mean                     =   7.1313583950284E+04
(PID.TID 0000.0001) %MON DXG_sd                       =   2.6131714747840E+04
(PID.TID 0000.0001) %MON DXV_max                      =   1.1117747335204E+05
(PID.TID 0000.0001) %MON DXV_min                      =   9.4742518926426E+03
(PID.TID 0000.0001) %MON DXV_mean                     =   7.1323777998314E+04
(PID.TID 0000.0001) %MON DXV_sd                       =   2.6117603792432E+04
(PID.TID 0000.0001) %MON YC_max                       =   8.9739397429324E+01
(PID.TID 0000.0001) %MON YC_min                       =  -8.1637173529390E+01
(PID.TID 0000.0001) %MON YC_mean                      =  -5.9338515025079E-01
(PID.TID 0000.0001) %MON YC_sd                        =   5.1058908630085E+01
(PID.TID 0000.0001) %MON YG_max                       =   9.0000000000000E+01
(PID.TID 0000.0001) %MON YG_min                       =  -8.1805478609906E+01
(PID.TID 0000.0001) %MON YG_mean                      =  -5.7357831765458E-01
(PID.TID 0000.0001) %MON YG_sd                        =   5.1060174609345E+01
(PID.TID 0000.0001) %MON DYC_max                      =   1.1117680031365E+05
(PID.TID 0000.0001) %MON DYC_min                      =   1.3362789164732E+04
(PID.TID 0000.0001) %MON DYC_mean                     =   7.0982792089666E+04
(PID.TID 0000.0001) %MON DYC_sd                       =   2.6607387075348E+04
(PID.TID 0000.0001) %MON DYF_max                      =   1.1117680031365E+05
(PID.TID 0000.0001) %MON DYF_min                      =   1.3491575949394E+04
(PID.TID 0000.0001) %MON DYF_mean                     =   7.1000127494934E+04
(PID.TID 0000.0001) %MON DYF_sd                       =   2.6603606017547E+04
(PID.TID 0000.0001) %MON DYG_max                      =   1.1117747335204E+05
(PID.TID 0000.0001) %MON DYG_min                      =   1.0930409249570E+04
(PID.TID 0000.0001) %MON DYG_mean                     =   7.1022116512585E+04
(PID.TID 0000.0001) %MON DYG_sd                       =   2.6571715830406E+04
(PID.TID 0000.0001) %MON DYU_max                      =   1.1117747335204E+05
(PID.TID 0000.0001) %MON DYU_min                      =   9.4742518926426E+03
(PID.TID 0000.0001) %MON DYU_mean                     =   7.1004694583927E+04
(PID.TID 0000.0001) %MON DYU_sd                       =   2.6575655787476E+04
(PID.TID 0000.0001) %MON RA_max                       =   1.1896090857160E+10
(PID.TID 0000.0001) %MON RA_min                       =   2.1263387742345E+08
(PID.TID 0000.0001) %MON RA_mean                      =   5.6344293572480E+09
(PID.TID 0000.0001) %MON RA_sd                        =   3.5929461176606E+09
(PID.TID 0000.0001) %MON RAW_max                      =   1.1896090856781E+10
(PID.TID 0000.0001) %MON RAW_min                      =   1.7369571508711E+08
(PID.TID 0000.0001) %MON RAW_mean                     =   5.6355850434318E+09
(PID.TID 0000.0001) %MON RAW_sd                       =   3.5915487677190E+09
(PID.TID 0000.0001) %MON RAS_max                      =   1.1896090856781E+10
(PID.TID 0000.0001) %MON RAS_min                      =   1.7369571508711E+08
(PID.TID 0000.0001) %MON RAS_mean                     =   5.6320332286162E+09
(PID.TID 0000.0001) %MON RAS_sd                       =   3.5937184228135E+09
(PID.TID 0000.0001) %MON RAZ_max                      =   1.1891903479271E+10
(PID.TID 0000.0001) %MON RAZ_min                      =   1.0413402423292E+08
(PID.TID 0000.0001) %MON RAZ_mean                     =   5.6331824674695E+09
(PID.TID 0000.0001) %MON RAZ_sd                       =   3.5923307220197E+09
(PID.TID 0000.0001) %MON AngleCS_max                  =   1.0000000000000E+00
(PID.TID 0000.0001) %MON AngleCS_min                  =  -9.9996641938864E-01
(PID.TID 0000.0001) %MON AngleCS_mean                 =   4.0572930529500E-01
(PID.TID 0000.0001) %MON AngleCS_sd                   =   5.3874397836718E-01
(PID.TID 0000.0001) %MON AngleSN_max                  =   9.9996641938864E-01
(PID.TID 0000.0001) %MON AngleSN_min                  =  -1.0000000000000E+00
(PID.TID 0000.0001) %MON AngleSN_mean                 =  -4.9986154624599E-01
(PID.TID 0000.0001) %MON AngleSN_sd                   =   5.4339404779819E-01
(PID.TID 0000.0001) GAD_INIT_FIXED: GAD_OlMinSize=  2  0  2
(PID.TID 0000.0001) 
(PID.TID 0000.0001) // ===================================
(PID.TID 0000.0001) // GAD parameters :
(PID.TID 0000.0001) // ===================================
(PID.TID 0000.0001) tempAdvScheme =   /* Temp. Horiz.Advection scheme selector */
(PID.TID 0000.0001)                      30
(PID.TID 0000.0001)     ;
(PID.TID 0000.0001) tempVertAdvScheme =   /* Temp. Vert. Advection scheme selector */
(PID.TID 0000.0001)                       3
(PID.TID 0000.0001)     ;
(PID.TID 0000.0001) tempMultiDimAdvec =   /* use Muti-Dim Advec method for Temp */
(PID.TID 0000.0001)                   T
(PID.TID 0000.0001)     ;
(PID.TID 0000.0001) tempSOM_Advection = /* use 2nd Order Moment Advection for Temp */
(PID.TID 0000.0001)                   F
(PID.TID 0000.0001)     ;
(PID.TID 0000.0001) AdamsBashforthGt = /* apply Adams-Bashforth extrapolation on Gt */
(PID.TID 0000.0001)                   F
(PID.TID 0000.0001)     ;
(PID.TID 0000.0001) AdamsBashforth_T = /* apply Adams-Bashforth extrapolation on Temp */
(PID.TID 0000.0001)                   F
(PID.TID 0000.0001)     ;
(PID.TID 0000.0001) saltAdvScheme =   /* Salt. Horiz.advection scheme selector */
(PID.TID 0000.0001)                      30
(PID.TID 0000.0001)     ;
(PID.TID 0000.0001) saltVertAdvScheme =   /* Salt. Vert. Advection scheme selector */
(PID.TID 0000.0001)                       3
(PID.TID 0000.0001)     ;
(PID.TID 0000.0001) saltMultiDimAdvec =   /* use Muti-Dim Advec method for Salt */
(PID.TID 0000.0001)                   T
(PID.TID 0000.0001)     ;
(PID.TID 0000.0001) saltSOM_Advection = /* use 2nd Order Moment Advection for Salt */
(PID.TID 0000.0001)                   F
(PID.TID 0000.0001)     ;
(PID.TID 0000.0001) AdamsBashforthGs = /* apply Adams-Bashforth extrapolation on Gs */
(PID.TID 0000.0001)                   F
(PID.TID 0000.0001)     ;
(PID.TID 0000.0001) AdamsBashforth_S = /* apply Adams-Bashforth extrapolation on Salt */
(PID.TID 0000.0001)                   F
(PID.TID 0000.0001)     ;
(PID.TID 0000.0001) // ===================================
(PID.TID 0000.0001) ctrl-wet 1:    nvarlength =        34632
(PID.TID 0000.0001) ctrl-wet 2: surface wet C =          312
(PID.TID 0000.0001) ctrl-wet 3: surface wet W =          312
(PID.TID 0000.0001) ctrl-wet 4: surface wet S =          283
(PID.TID 0000.0001) ctrl-wet 4a:surface wet V =            0
(PID.TID 0000.0001) ctrl-wet 5: 3D wet points =        11544
(PID.TID 0000.0001) ctrl-wet 6: no recs for i =     1           0
(PID.TID 0000.0001) ctrl-wet 6: no recs for i =     2           0
(PID.TID 0000.0001) ctrl-wet 6: no recs for i =     3           0
(PID.TID 0000.0001) ctrl-wet 6: no recs for i =     4           0
(PID.TID 0000.0001) ctrl-wet 6: no recs for i =     5           0
(PID.TID 0000.0001) ctrl-wet 6: no recs for i =     6           0
(PID.TID 0000.0001) ctrl-wet 6: no recs for i =     7           0
(PID.TID 0000.0001) ctrl-wet 6: no recs for i =     8           0
(PID.TID 0000.0001) ctrl-wet 6: no recs for i =     9           0
(PID.TID 0000.0001) ctrl-wet 6: no recs for i =    10           0
(PID.TID 0000.0001) ctrl-wet 6: no recs for i =    11           0
(PID.TID 0000.0001) ctrl-wet 6: no recs for i =    12           0
(PID.TID 0000.0001) ctrl-wet 6: no recs for i =    13           0
(PID.TID 0000.0001) ctrl-wet 6: no recs for i =    14           0
(PID.TID 0000.0001) ctrl-wet 6: no recs for i =    15           0
(PID.TID 0000.0001) ctrl-wet 6: no recs for i =    16           0
(PID.TID 0000.0001) ctrl-wet 6: no recs for i =    17           0
(PID.TID 0000.0001) ctrl-wet 6: no recs for i =    18           0
(PID.TID 0000.0001) ctrl-wet 6: no recs for i =    19           0
(PID.TID 0000.0001) ctrl-wet 6: no recs for i =    20           0
(PID.TID 0000.0001) ctrl-wet 6: no recs for i =    21           0
(PID.TID 0000.0001) ctrl-wet 6: no recs for i =    22           0
(PID.TID 0000.0001) ctrl-wet 6: no recs for i =    23           0
(PID.TID 0000.0001) ctrl-wet 6: no recs for i =    24           0
(PID.TID 0000.0001) ctrl-wet 6: no recs for i =    25           0
(PID.TID 0000.0001) ctrl-wet 6: no recs for i =    26           0
(PID.TID 0000.0001) ctrl-wet 6: no recs for i =    27           0
(PID.TID 0000.0001) ctrl-wet 6: no recs for i =    28           0
(PID.TID 0000.0001) ctrl-wet 6: no recs for i =    29           0
(PID.TID 0000.0001) ctrl-wet 6: no recs for i =    30           0
(PID.TID 0000.0001) ctrl-wet 6: no recs for i =    31           0
(PID.TID 0000.0001) ctrl-wet 6: no recs for i =    32           0
(PID.TID 0000.0001) ctrl-wet 6: no recs for i =    33           0
(PID.TID 0000.0001) ctrl-wet 6: no recs for i =    34           0
(PID.TID 0000.0001) ctrl-wet 6: no recs for i =    35           0
(PID.TID 0000.0001) ctrl-wet 6: no recs for i =    36           0
(PID.TID 0000.0001) ctrl-wet 6: no recs for i =    37           0
(PID.TID 0000.0001) ctrl-wet 6: no recs for i =    38           0
(PID.TID 0000.0001) ctrl-wet 6: no recs for i =    39           0
(PID.TID 0000.0001) ctrl-wet 6: no recs for i =    40           0
(PID.TID 0000.0001) ctrl-wet 6: no recs for i =    41           0
(PID.TID 0000.0001) ctrl-wet 6: no recs for i =    42           0
(PID.TID 0000.0001) ctrl-wet 6: no recs for i =    43           0
(PID.TID 0000.0001) ctrl-wet 6: no recs for i =    44           0
(PID.TID 0000.0001) ctrl-wet 6: no recs for i =    45           0
(PID.TID 0000.0001) ctrl-wet 6: no recs for i =    46           0
(PID.TID 0000.0001) ctrl-wet 6: no recs for i =    47           0
(PID.TID 0000.0001) ctrl-wet 6: no recs for i =    48           0
(PID.TID 0000.0001) ctrl-wet 6: no recs for i =    49           0
(PID.TID 0000.0001) ctrl-wet 6: no recs for i =    50           0
(PID.TID 0000.0001) ctrl-wet 6: no recs for i =    51           0
(PID.TID 0000.0001) ctrl-wet 6: no recs for i =    52           0
(PID.TID 0000.0001) ctrl-wet 6: no recs for i =    53           0
(PID.TID 0000.0001) ctrl-wet 6: no recs for i =    54           0
(PID.TID 0000.0001) ctrl-wet 6: no recs for i =    55           0
(PID.TID 0000.0001) ctrl-wet 6: no recs for i =    56           0
(PID.TID 0000.0001) ctrl-wet 6: no recs for i =    57           0
(PID.TID 0000.0001) ctrl-wet 6: no recs for i =    58           0
(PID.TID 0000.0001) ctrl-wet 6: no recs for i =    59           0
(PID.TID 0000.0001) ctrl-wet 6: no recs for i =    60           0
(PID.TID 0000.0001) ctrl-wet 6: no recs for i =    61           0
(PID.TID 0000.0001) ctrl-wet 6: no recs for i =    62           0
(PID.TID 0000.0001) ctrl-wet 6: no recs for i =    63           0
(PID.TID 0000.0001) ctrl-wet 6: no recs for i =    64           0
(PID.TID 0000.0001) ctrl-wet 6: no recs for i =    65           0
(PID.TID 0000.0001) ctrl-wet 6: no recs for i =    66           0
(PID.TID 0000.0001) ctrl-wet 6: no recs for i =    67           0
(PID.TID 0000.0001) ctrl-wet 6: no recs for i =    68           0
(PID.TID 0000.0001) ctrl-wet 6: no recs for i =    69           0
(PID.TID 0000.0001) ctrl-wet 6: no recs for i =    70           0
(PID.TID 0000.0001) ctrl-wet 6: no recs for i =    71           0
(PID.TID 0000.0001) ctrl-wet 6: no recs for i =    72           0
(PID.TID 0000.0001) ctrl-wet 6: no recs for i =    73           0
(PID.TID 0000.0001) ctrl-wet 6: no recs for i =    74           0
(PID.TID 0000.0001) ctrl-wet 6: no recs for i =    75           0
(PID.TID 0000.0001) ctrl-wet 6: no recs for i =    76           0
(PID.TID 0000.0001) ctrl-wet 6: no recs for i =    77           0
(PID.TID 0000.0001) ctrl-wet 6: no recs for i =    78           0
(PID.TID 0000.0001) ctrl-wet 6: no recs for i =    79           0
(PID.TID 0000.0001) ctrl-wet 6: no recs for i =    80           0
(PID.TID 0000.0001) ctrl-wet 6: no recs for i =    81           0
(PID.TID 0000.0001) ctrl-wet 6: no recs for i =    82           0
(PID.TID 0000.0001) ctrl-wet 6: no recs for i =    83           0
(PID.TID 0000.0001) ctrl-wet 6: no recs for i =    84           0
(PID.TID 0000.0001) ctrl-wet 6: no recs for i =    85           0
(PID.TID 0000.0001) ctrl-wet 6: no recs for i =    86           0
(PID.TID 0000.0001) ctrl-wet 6: no recs for i =    87           0
(PID.TID 0000.0001) ctrl-wet 6: no recs for i =    88           0
(PID.TID 0000.0001) ctrl-wet 6: no recs for i =    89           0
(PID.TID 0000.0001) ctrl-wet 6: no recs for i =    90           0
(PID.TID 0000.0001) ctrl-wet 6: no recs for i =    91           0
(PID.TID 0000.0001) ctrl-wet 6: no recs for i =    92           0
(PID.TID 0000.0001) ctrl-wet 6: no recs for i =    93           0
(PID.TID 0000.0001) ctrl-wet 6: no recs for i =    94           0
(PID.TID 0000.0001) ctrl-wet 6: no recs for i =    95           0
(PID.TID 0000.0001) ctrl-wet 6: no recs for i =    96           0
(PID.TID 0000.0001) ctrl-wet 6: no recs for i =    97           0
(PID.TID 0000.0001) ctrl-wet 6: no recs for i =    98           0
(PID.TID 0000.0001) ctrl-wet 6: no recs for i =    99           0
(PID.TID 0000.0001) ctrl-wet 6: no recs for i =   100           0
(PID.TID 0000.0001) ctrl-wet 6: no recs for i =   101           0
(PID.TID 0000.0001) ctrl-wet 6: no recs for i =   102           0
(PID.TID 0000.0001) ctrl-wet 6: no recs for i =   103           0
(PID.TID 0000.0001) ctrl-wet 6: no recs for i =   104           0
(PID.TID 0000.0001) ctrl-wet 6: no recs for i =   105           0
(PID.TID 0000.0001) ctrl-wet 6: no recs for i =   106           0
(PID.TID 0000.0001) ctrl-wet 6: no recs for i =   107           0
(PID.TID 0000.0001) ctrl-wet 6: no recs for i =   108           0
(PID.TID 0000.0001) ctrl-wet 6: no recs for i =   109           0
(PID.TID 0000.0001) ctrl-wet 6: no recs for i =   110           0
(PID.TID 0000.0001) ctrl-wet 6: no recs for i =   111           0
(PID.TID 0000.0001) ctrl-wet 6: no recs for i =   112           0
(PID.TID 0000.0001) ctrl-wet 6: no recs for i =   113           0
(PID.TID 0000.0001) ctrl-wet 6: no recs for i =   114           0
(PID.TID 0000.0001) ctrl-wet 6: no recs for i =   115           0
(PID.TID 0000.0001) ctrl-wet 6: no recs for i =   116           0
(PID.TID 0000.0001) ctrl-wet 6: no recs for i =   117           0
(PID.TID 0000.0001) ctrl-wet 6: no recs for i =   118           0
(PID.TID 0000.0001) ctrl-wet 6: no recs for i =   119           0
(PID.TID 0000.0001) ctrl-wet 6: no recs for i =   120           0
(PID.TID 0000.0001) ctrl-wet 6: no recs for i =   121           0
(PID.TID 0000.0001) ctrl-wet 6: no recs for i =   122           0
(PID.TID 0000.0001) ctrl-wet 6: no recs for i =   123           0
(PID.TID 0000.0001) ctrl-wet 6: no recs for i =   124           0
(PID.TID 0000.0001) ctrl-wet 6: no recs for i =   125           0
(PID.TID 0000.0001) ctrl-wet 6: no recs for i =   126           0
(PID.TID 0000.0001) ctrl-wet 6: no recs for i =   127           0
(PID.TID 0000.0001) ctrl-wet 6: no recs for i =   128           0
(PID.TID 0000.0001) ctrl-wet 6: no recs for i =   129           0
(PID.TID 0000.0001) ctrl-wet 6: no recs for i =   130           0
(PID.TID 0000.0001) ctrl-wet 6: no recs for i =   131           0
(PID.TID 0000.0001) ctrl-wet 6: no recs for i =   132           0
(PID.TID 0000.0001) ctrl-wet 6: no recs for i =   133           0
(PID.TID 0000.0001) ctrl-wet 6: no recs for i =   134           0
(PID.TID 0000.0001) ctrl-wet 6: no recs for i =   135           0
(PID.TID 0000.0001) ctrl-wet 6: no recs for i =   136           0
(PID.TID 0000.0001) ctrl-wet 6: no recs for i =   137           0
(PID.TID 0000.0001) ctrl-wet 6: no recs for i =   138           0
(PID.TID 0000.0001) ctrl-wet 6: no recs for i =   139           0
(PID.TID 0000.0001) ctrl-wet 6: no recs for i =   140           0
(PID.TID 0000.0001) ctrl-wet 6: no recs for i =   141           0
(PID.TID 0000.0001) ctrl-wet 6: no recs for i =   142           0
(PID.TID 0000.0001) ctrl-wet 6: no recs for i =   143           0
(PID.TID 0000.0001) ctrl-wet 6: no recs for i =   144           0
(PID.TID 0000.0001) ctrl-wet 6: no recs for i =   145           0
(PID.TID 0000.0001) ctrl-wet 6: no recs for i =   146           0
(PID.TID 0000.0001) ctrl-wet 6: no recs for i =   147           0
(PID.TID 0000.0001) ctrl-wet 6: no recs for i =   148           0
(PID.TID 0000.0001) ctrl-wet 6: no recs for i =   149           0
(PID.TID 0000.0001) ctrl-wet 6: no recs for i =   150           0
(PID.TID 0000.0001) ctrl-wet 6: no recs for i =   151           0
(PID.TID 0000.0001) ctrl-wet 6: no recs for i =   152           0
(PID.TID 0000.0001) ctrl-wet 6: no recs for i =   153           0
(PID.TID 0000.0001) ctrl-wet 6: no recs for i =   154           0
(PID.TID 0000.0001) ctrl-wet 6: no recs for i =   155           0
(PID.TID 0000.0001) ctrl-wet 6: no recs for i =   156           0
(PID.TID 0000.0001) ctrl-wet 6: no recs for i =   157           0
(PID.TID 0000.0001) ctrl-wet 6: no recs for i =   158           0
(PID.TID 0000.0001) ctrl-wet 6: no recs for i =   159           0
(PID.TID 0000.0001) ctrl-wet 6: no recs for i =   160           0
(PID.TID 0000.0001) ctrl-wet 6: no recs for i =   161           0
(PID.TID 0000.0001) ctrl-wet 6: no recs for i =   162           0
(PID.TID 0000.0001) ctrl-wet 6: no recs for i =   163           0
(PID.TID 0000.0001) ctrl-wet 6: no recs for i =   164           0
(PID.TID 0000.0001) ctrl-wet 6: no recs for i =   165           0
(PID.TID 0000.0001) ctrl-wet 6: no recs for i =   166           0
(PID.TID 0000.0001) ctrl-wet 6: no recs for i =   167           0
(PID.TID 0000.0001) ctrl-wet 6: no recs for i =   168           0
(PID.TID 0000.0001) ctrl-wet 6: no recs for i =   169           0
(PID.TID 0000.0001) ctrl-wet 6: no recs for i =   170           0
(PID.TID 0000.0001) ctrl-wet 6: no recs for i =   171           0
(PID.TID 0000.0001) ctrl-wet 6: no recs for i =   172           0
(PID.TID 0000.0001) ctrl-wet 6: no recs for i =   173           0
(PID.TID 0000.0001) ctrl-wet 6: no recs for i =   174           0
(PID.TID 0000.0001) ctrl-wet 6: no recs for i =   175           0
(PID.TID 0000.0001) ctrl-wet 6: no recs for i =   176           0
(PID.TID 0000.0001) ctrl-wet 6: no recs for i =   177           0
(PID.TID 0000.0001) ctrl-wet 6: no recs for i =   178           0
(PID.TID 0000.0001) ctrl-wet 6: no recs for i =   179           0
(PID.TID 0000.0001) ctrl-wet 6: no recs for i =   180           0
(PID.TID 0000.0001) ctrl-wet 6: no recs for i =   181           0
(PID.TID 0000.0001) ctrl-wet 6: no recs for i =   182           0
(PID.TID 0000.0001) ctrl-wet 6: no recs for i =   183           0
(PID.TID 0000.0001) ctrl-wet 6: no recs for i =   184           0
(PID.TID 0000.0001) ctrl-wet 6: no recs for i =   185           0
(PID.TID 0000.0001) ctrl-wet 6: no recs for i =   186           0
(PID.TID 0000.0001) ctrl-wet 6: no recs for i =   187           0
(PID.TID 0000.0001) ctrl-wet 6: no recs for i =   188           0
(PID.TID 0000.0001) ctrl-wet 6: no recs for i =   189           0
(PID.TID 0000.0001) ctrl-wet 6: no recs for i =   190           0
(PID.TID 0000.0001) ctrl-wet 6: no recs for i =   191           0
(PID.TID 0000.0001) ctrl-wet 6: no recs for i =   192           0
(PID.TID 0000.0001) ctrl-wet 6: no recs for i =   193           0
(PID.TID 0000.0001) ctrl-wet 6: no recs for i =   194           0
(PID.TID 0000.0001) ctrl-wet 6: no recs for i =   195           0
(PID.TID 0000.0001) ctrl-wet 6: no recs for i =   196           0
(PID.TID 0000.0001) ctrl-wet 6: no recs for i =   197           0
(PID.TID 0000.0001) ctrl-wet 6: no recs for i =   198           0
(PID.TID 0000.0001) ctrl-wet 6: no recs for i =   199           0
(PID.TID 0000.0001) ctrl-wet 6: no recs for i =   200           0
(PID.TID 0000.0001) ctrl-wet 6: no recs for i =   201           1
(PID.TID 0000.0001) ctrl-wet 6: no recs for i =   202           1
(PID.TID 0000.0001) ctrl-wet 6: no recs for i =   203           1
(PID.TID 0000.0001) ctrl-wet 6: no recs for i =   204           0
(PID.TID 0000.0001) ctrl-wet 6: no recs for i =   205           0
(PID.TID 0000.0001) ctrl-wet 6: no recs for i =   206           0
(PID.TID 0000.0001) ctrl-wet 6: no recs for i =   207           0
(PID.TID 0000.0001) ctrl-wet 6: no recs for i =   208           0
(PID.TID 0000.0001) ctrl-wet 6: no recs for i =   209           0
(PID.TID 0000.0001) ctrl-wet 6: no recs for i =   210           0
(PID.TID 0000.0001) ctrl-wet 6: no recs for i =   211           0
(PID.TID 0000.0001) ctrl-wet 6: no recs for i =   212           0
(PID.TID 0000.0001) ctrl-wet 6: no recs for i =   213           0
(PID.TID 0000.0001) ctrl-wet 6: no recs for i =   214           0
(PID.TID 0000.0001) ctrl-wet 6: no recs for i =   215           0
(PID.TID 0000.0001) ctrl-wet 6: no recs for i =   216           0
(PID.TID 0000.0001) ctrl-wet 6: no recs for i =   217           0
(PID.TID 0000.0001) ctrl-wet 6: no recs for i =   218           0
(PID.TID 0000.0001) ctrl-wet 6: no recs for i =   219           0
(PID.TID 0000.0001) ctrl-wet 6: no recs for i =   220           0
(PID.TID 0000.0001) ctrl-wet 6: no recs for i =   221           0
(PID.TID 0000.0001) ctrl-wet 6: no recs for i =   222           0
(PID.TID 0000.0001) ctrl-wet 6: no recs for i =   223           0
(PID.TID 0000.0001) ctrl-wet 6: no recs for i =   224           0
(PID.TID 0000.0001) ctrl-wet 6: no recs for i =   225           0
(PID.TID 0000.0001) ctrl-wet 6: no recs for i =   226           0
(PID.TID 0000.0001) ctrl-wet 6: no recs for i =   227           0
(PID.TID 0000.0001) ctrl-wet 6: no recs for i =   228           0
(PID.TID 0000.0001) ctrl-wet 6: no recs for i =   229           0
(PID.TID 0000.0001) ctrl-wet 6: no recs for i =   230           0
(PID.TID 0000.0001) ctrl-wet 6: no recs for i =   231           0
(PID.TID 0000.0001) ctrl-wet 6: no recs for i =   232           0
(PID.TID 0000.0001) ctrl-wet 6: no recs for i =   233           0
(PID.TID 0000.0001) ctrl-wet 6: no recs for i =   234           0
(PID.TID 0000.0001) ctrl-wet 6: no recs for i =   235           0
(PID.TID 0000.0001) ctrl-wet 6: no recs for i =   236           0
(PID.TID 0000.0001) ctrl-wet 6: no recs for i =   237           0
(PID.TID 0000.0001) ctrl-wet 6: no recs for i =   238           0
(PID.TID 0000.0001) ctrl-wet 6: no recs for i =   239           0
(PID.TID 0000.0001) ctrl-wet 6: no recs for i =   240           0
(PID.TID 0000.0001) ctrl-wet 6: no recs for i =   241           0
(PID.TID 0000.0001) ctrl-wet 6: no recs for i =   242           0
(PID.TID 0000.0001) ctrl-wet 6: no recs for i =   243           0
(PID.TID 0000.0001) ctrl-wet 6: no recs for i =   244           0
(PID.TID 0000.0001) ctrl-wet 6: no recs for i =   245           0
(PID.TID 0000.0001) ctrl-wet 6: no recs for i =   246           0
(PID.TID 0000.0001) ctrl-wet 6: no recs for i =   247           0
(PID.TID 0000.0001) ctrl-wet 6: no recs for i =   248           0
(PID.TID 0000.0001) ctrl-wet 6: no recs for i =   249           0
(PID.TID 0000.0001) ctrl-wet 6: no recs for i =   250           0
(PID.TID 0000.0001) ctrl-wet 6: no recs for i =   251           0
(PID.TID 0000.0001) ctrl-wet 6: no recs for i =   252           0
(PID.TID 0000.0001) ctrl-wet 6: no recs for i =   253           0
(PID.TID 0000.0001) ctrl-wet 6: no recs for i =   254           0
(PID.TID 0000.0001) ctrl-wet 6: no recs for i =   255           0
(PID.TID 0000.0001) ctrl-wet 6: no recs for i =   256           0
(PID.TID 0000.0001) ctrl-wet 6: no recs for i =   257           0
(PID.TID 0000.0001) ctrl-wet 6: no recs for i =   258           0
(PID.TID 0000.0001) ctrl-wet 6: no recs for i =   259           0
(PID.TID 0000.0001) ctrl-wet 6: no recs for i =   260           0
(PID.TID 0000.0001) ctrl-wet 6: no recs for i =   261           0
(PID.TID 0000.0001) ctrl-wet 6: no recs for i =   262           0
(PID.TID 0000.0001) ctrl-wet 6: no recs for i =   263           0
(PID.TID 0000.0001) ctrl-wet 6: no recs for i =   264           0
(PID.TID 0000.0001) ctrl-wet 6: no recs for i =   265           0
(PID.TID 0000.0001) ctrl-wet 6: no recs for i =   266           0
(PID.TID 0000.0001) ctrl-wet 6: no recs for i =   267           0
(PID.TID 0000.0001) ctrl-wet 6: no recs for i =   268           0
(PID.TID 0000.0001) ctrl-wet 6: no recs for i =   269           0
(PID.TID 0000.0001) ctrl-wet 6: no recs for i =   270           0
(PID.TID 0000.0001) ctrl-wet 6: no recs for i =   271           0
(PID.TID 0000.0001) ctrl-wet 6: no recs for i =   272           0
(PID.TID 0000.0001) ctrl-wet 6: no recs for i =   273           0
(PID.TID 0000.0001) ctrl-wet 6: no recs for i =   274           0
(PID.TID 0000.0001) ctrl-wet 6: no recs for i =   275           0
(PID.TID 0000.0001) ctrl-wet 6: no recs for i =   276           0
(PID.TID 0000.0001) ctrl-wet 6: no recs for i =   277           0
(PID.TID 0000.0001) ctrl-wet 6: no recs for i =   278           0
(PID.TID 0000.0001) ctrl-wet 6: no recs for i =   279           0
(PID.TID 0000.0001) ctrl-wet 6: no recs for i =   280           0
(PID.TID 0000.0001) ctrl-wet 6: no recs for i =   281           0
(PID.TID 0000.0001) ctrl-wet 6: no recs for i =   282           0
(PID.TID 0000.0001) ctrl-wet 6: no recs for i =   283           0
(PID.TID 0000.0001) ctrl-wet 6: no recs for i =   284           0
(PID.TID 0000.0001) ctrl-wet 6: no recs for i =   285           0
(PID.TID 0000.0001) ctrl-wet 6: no recs for i =   286           0
(PID.TID 0000.0001) ctrl-wet 6: no recs for i =   287           0
(PID.TID 0000.0001) ctrl-wet 6: no recs for i =   288           0
(PID.TID 0000.0001) ctrl-wet 6: no recs for i =   289           0
(PID.TID 0000.0001) ctrl-wet 6: no recs for i =   290           0
(PID.TID 0000.0001) ctrl-wet 6: no recs for i =   291           0
(PID.TID 0000.0001) ctrl-wet 6: no recs for i =   292           0
(PID.TID 0000.0001) ctrl-wet 6: no recs for i =   293           0
(PID.TID 0000.0001) ctrl-wet 6: no recs for i =   294           0
(PID.TID 0000.0001) ctrl-wet 6: no recs for i =   295           0
(PID.TID 0000.0001) ctrl-wet 6: no recs for i =   296           0
(PID.TID 0000.0001) ctrl-wet 6: no recs for i =   297           0
(PID.TID 0000.0001) ctrl-wet 6: no recs for i =   298           0
(PID.TID 0000.0001) ctrl-wet 6: no recs for i =   299           0
(PID.TID 0000.0001) ctrl-wet 6: no recs for i =   300           0
(PID.TID 0000.0001) ctrl-wet 6: no recs for i =   301           0
(PID.TID 0000.0001) ctrl-wet 6: no recs for i =   302           0
(PID.TID 0000.0001) ctrl-wet 6: no recs for i =   303           0
(PID.TID 0000.0001) ctrl-wet 6: no recs for i =   304           0
(PID.TID 0000.0001) ctrl-wet 6: no recs for i =   305           0
(PID.TID 0000.0001) ctrl-wet 6: no recs for i =   306           0
(PID.TID 0000.0001) ctrl-wet 6: no recs for i =   307           0
(PID.TID 0000.0001) ctrl-wet 6: no recs for i =   308           0
(PID.TID 0000.0001) ctrl-wet 6: no recs for i =   309           0
(PID.TID 0000.0001) ctrl-wet 6: no recs for i =   310           0
(PID.TID 0000.0001) ctrl-wet 6: no recs for i =   311           0
(PID.TID 0000.0001) ctrl-wet 6: no recs for i =   312           0
(PID.TID 0000.0001) ctrl-wet 6: no recs for i =   313           0
(PID.TID 0000.0001) ctrl-wet 6: no recs for i =   314           0
(PID.TID 0000.0001) ctrl-wet 6: no recs for i =   315           0
(PID.TID 0000.0001) ctrl-wet 6: no recs for i =   316           0
(PID.TID 0000.0001) ctrl-wet 6: no recs for i =   317           0
(PID.TID 0000.0001) ctrl-wet 6: no recs for i =   318           0
(PID.TID 0000.0001) ctrl-wet 6: no recs for i =   319           0
(PID.TID 0000.0001) ctrl-wet 6: no recs for i =   320           0
(PID.TID 0000.0001) ctrl-wet 6: no recs for i =   321           0
(PID.TID 0000.0001) ctrl-wet 6: no recs for i =   322           0
(PID.TID 0000.0001) ctrl-wet 6: no recs for i =   323           0
(PID.TID 0000.0001) ctrl-wet 6: no recs for i =   324           0
(PID.TID 0000.0001) ctrl-wet 6: no recs for i =   325           0
(PID.TID 0000.0001) ctrl-wet 6: no recs for i =   326           0
(PID.TID 0000.0001) ctrl-wet 6: no recs for i =   327           0
(PID.TID 0000.0001) ctrl-wet 6: no recs for i =   328           0
(PID.TID 0000.0001) ctrl-wet 6: no recs for i =   329           0
(PID.TID 0000.0001) ctrl-wet 6: no recs for i =   330           0
(PID.TID 0000.0001) ctrl-wet 6: no recs for i =   331           0
(PID.TID 0000.0001) ctrl-wet 6: no recs for i =   332           0
(PID.TID 0000.0001) ctrl-wet 6: no recs for i =   333           0
(PID.TID 0000.0001) ctrl-wet 6: no recs for i =   334           0
(PID.TID 0000.0001) ctrl-wet 6: no recs for i =   335           0
(PID.TID 0000.0001) ctrl-wet 6: no recs for i =   336           0
(PID.TID 0000.0001) ctrl-wet 6: no recs for i =   337           0
(PID.TID 0000.0001) ctrl-wet 6: no recs for i =   338           0
(PID.TID 0000.0001) ctrl-wet 6: no recs for i =   339           0
(PID.TID 0000.0001) ctrl-wet 6: no recs for i =   340           0
(PID.TID 0000.0001) ctrl-wet 6: no recs for i =   341           0
(PID.TID 0000.0001) ctrl-wet 6: no recs for i =   342           0
(PID.TID 0000.0001) ctrl-wet 6: no recs for i =   343           0
(PID.TID 0000.0001) ctrl-wet 6: no recs for i =   344           0
(PID.TID 0000.0001) ctrl-wet 6: no recs for i =   345           0
(PID.TID 0000.0001) ctrl-wet 6: no recs for i =   346           0
(PID.TID 0000.0001) ctrl-wet 6: no recs for i =   347           0
(PID.TID 0000.0001) ctrl-wet 6: no recs for i =   348           0
(PID.TID 0000.0001) ctrl-wet 6: no recs for i =   349           0
(PID.TID 0000.0001) ctrl-wet 6: no recs for i =   350           0
(PID.TID 0000.0001) ctrl-wet 6: no recs for i =   351           0
(PID.TID 0000.0001) ctrl-wet 6: no recs for i =   352           0
(PID.TID 0000.0001) ctrl-wet 6: no recs for i =   353           0
(PID.TID 0000.0001) ctrl-wet 6: no recs for i =   354           0
(PID.TID 0000.0001) ctrl-wet 6: no recs for i =   355           0
(PID.TID 0000.0001) ctrl-wet 6: no recs for i =   356           0
(PID.TID 0000.0001) ctrl-wet 6: no recs for i =   357           0
(PID.TID 0000.0001) ctrl-wet 6: no recs for i =   358           0
(PID.TID 0000.0001) ctrl-wet 6: no recs for i =   359           0
(PID.TID 0000.0001) ctrl-wet 6: no recs for i =   360           0
(PID.TID 0000.0001) ctrl-wet 6: no recs for i =   361           0
(PID.TID 0000.0001) ctrl-wet 6: no recs for i =   362           0
(PID.TID 0000.0001) ctrl-wet 6: no recs for i =   363           0
(PID.TID 0000.0001) ctrl-wet 6: no recs for i =   364           0
(PID.TID 0000.0001) ctrl-wet 6: no recs for i =   365           0
(PID.TID 0000.0001) ctrl-wet 6: no recs for i =   366           0
(PID.TID 0000.0001) ctrl-wet 6: no recs for i =   367           0
(PID.TID 0000.0001) ctrl-wet 6: no recs for i =   368           0
(PID.TID 0000.0001) ctrl-wet 6: no recs for i =   369           0
(PID.TID 0000.0001) ctrl-wet 6: no recs for i =   370           0
(PID.TID 0000.0001) ctrl-wet 6: no recs for i =   371           0
(PID.TID 0000.0001) ctrl-wet 6: no recs for i =   372           0
(PID.TID 0000.0001) ctrl-wet 6: no recs for i =   373           0
(PID.TID 0000.0001) ctrl-wet 6: no recs for i =   374           0
(PID.TID 0000.0001) ctrl-wet 6: no recs for i =   375           0
(PID.TID 0000.0001) ctrl-wet 6: no recs for i =   376           0
(PID.TID 0000.0001) ctrl-wet 6: no recs for i =   377           0
(PID.TID 0000.0001) ctrl-wet 6: no recs for i =   378           0
(PID.TID 0000.0001) ctrl-wet 6: no recs for i =   379           0
(PID.TID 0000.0001) ctrl-wet 6: no recs for i =   380           0
(PID.TID 0000.0001) ctrl-wet 6: no recs for i =   381           0
(PID.TID 0000.0001) ctrl-wet 6: no recs for i =   382           0
(PID.TID 0000.0001) ctrl-wet 6: no recs for i =   383           0
(PID.TID 0000.0001) ctrl-wet 6: no recs for i =   384           0
(PID.TID 0000.0001) ctrl-wet 6: no recs for i =   385           0
(PID.TID 0000.0001) ctrl-wet 6: no recs for i =   386           0
(PID.TID 0000.0001) ctrl-wet 6: no recs for i =   387           0
(PID.TID 0000.0001) ctrl-wet 6: no recs for i =   388           0
(PID.TID 0000.0001) ctrl-wet 6: no recs for i =   389           0
(PID.TID 0000.0001) ctrl-wet 6: no recs for i =   390           0
(PID.TID 0000.0001) ctrl-wet 6: no recs for i =   391           0
(PID.TID 0000.0001) ctrl-wet 6: no recs for i =   392           0
(PID.TID 0000.0001) ctrl-wet 6: no recs for i =   393           0
(PID.TID 0000.0001) ctrl-wet 6: no recs for i =   394           0
(PID.TID 0000.0001) ctrl-wet 6: no recs for i =   395           0
(PID.TID 0000.0001) ctrl-wet 6: no recs for i =   396           0
(PID.TID 0000.0001) ctrl-wet 6: no recs for i =   397           0
(PID.TID 0000.0001) ctrl-wet 6: no recs for i =   398           0
(PID.TID 0000.0001) ctrl-wet 6: no recs for i =   399           0
(PID.TID 0000.0001) ctrl-wet 6: no recs for i =   400           0
(PID.TID 0000.0001) ctrl-wet 7: flux         23088
(PID.TID 0000.0001) ctrl-wet 8: atmos        23088
(PID.TID 0000.0001) ctrl-wet -------------------------------------------------
(PID.TID 0000.0001) ctrl-wet 13: global nvarlength for Nr =   50     7220976
(PID.TID 0000.0001) ctrl-wet -------------------------------------------------
(PID.TID 0000.0001) ctrl-wet 14: global nWet C/S/W/V k=    1       60646       59295       59493           0
(PID.TID 0000.0001) ctrl-wet 14: global nWet C/S/W/V k=    2       60646       59295       59493           0
(PID.TID 0000.0001) ctrl-wet 14: global nWet C/S/W/V k=    3       59874       58517       58725           0
(PID.TID 0000.0001) ctrl-wet 14: global nWet C/S/W/V k=    4       59387       58040       58258           0
(PID.TID 0000.0001) ctrl-wet 14: global nWet C/S/W/V k=    5       58882       57536       57754           0
(PID.TID 0000.0001) ctrl-wet 14: global nWet C/S/W/V k=    6       58399       57057       57276           0
(PID.TID 0000.0001) ctrl-wet 14: global nWet C/S/W/V k=    7       58052       56735       56936           0
(PID.TID 0000.0001) ctrl-wet 14: global nWet C/S/W/V k=    8       57781       56461       56669           0
[...]
(PID.TID 0000.0001) %MON dynstat_sss_min              =   1.8874694994451E+01
(PID.TID 0000.0001) %MON dynstat_sss_mean             =   3.4686835655551E+01
(PID.TID 0000.0001) %MON dynstat_sss_sd               =   1.1252062470390E+00
(PID.TID 0000.0001) %MON dynstat_sss_del2             =   3.6613266237799E-04
(PID.TID 0000.0001) %MON forcing_qnet_max             =   2.5711203895931E+03
(PID.TID 0000.0001) %MON forcing_qnet_min             =  -8.1812509748284E+02
(PID.TID 0000.0001) %MON forcing_qnet_mean            =   4.2930737915844E+00
(PID.TID 0000.0001) %MON forcing_qnet_sd              =   1.9507984579609E+02
(PID.TID 0000.0001) %MON forcing_qnet_del2            =   3.9210997141524E-01
(PID.TID 0000.0001) %MON forcing_qsw_max              =   0.0000000000000E+00
(PID.TID 0000.0001) %MON forcing_qsw_min              =  -1.0966375590373E+02
(PID.TID 0000.0001) %MON forcing_qsw_mean             =  -1.8684303030873E+01
(PID.TID 0000.0001) %MON forcing_qsw_sd               =   2.8391784899187E+01
(PID.TID 0000.0001) %MON forcing_qsw_del2             =   2.1684810650896E-02
(PID.TID 0000.0001) %MON forcing_empmr_max            =   1.6315375687554E-03
(PID.TID 0000.0001) %MON forcing_empmr_min            =  -5.0600608810782E-03
(PID.TID 0000.0001) %MON forcing_empmr_mean           =  -4.1303288533326E-06
(PID.TID 0000.0001) %MON forcing_empmr_sd             =   1.3823495937678E-04
(PID.TID 0000.0001) %MON forcing_empmr_del2           =   6.5948630679761E-07
(PID.TID 0000.0001) %MON forcing_fu_max               =   9.2965584993362E-01
(PID.TID 0000.0001) %MON forcing_fu_min               =  -1.0337989926338E+00
(PID.TID 0000.0001) %MON forcing_fu_mean              =   8.5396985329597E-03
(PID.TID 0000.0001) %MON forcing_fu_sd                =   1.0696317715691E-01
(PID.TID 0000.0001) %MON forcing_fu_del2              =   1.5053625654333E-04
(PID.TID 0000.0001) %MON forcing_fv_max               =   9.6133854985237E-01
(PID.TID 0000.0001) %MON forcing_fv_min               =  -9.4791361689568E-01
(PID.TID 0000.0001) %MON forcing_fv_mean              =  -8.9735675670792E-03
(PID.TID 0000.0001) %MON forcing_fv_sd                =   1.0911027945989E-01
(PID.TID 0000.0001) %MON forcing_fv_del2              =   1.4812874802171E-04
(PID.TID 0000.0001) %MON trAdv_CFL_u_max              =   2.2891367084389E-02
(PID.TID 0000.0001) %MON trAdv_CFL_v_max              =   2.4657029484790E-02
(PID.TID 0000.0001) %MON trAdv_CFL_w_max              =   1.1165085852597E-01
(PID.TID 0000.0001) %MON advcfl_uvel_max              =   2.2081930339703E-02
(PID.TID 0000.0001) %MON advcfl_vvel_max              =   2.3593834995679E-02
(PID.TID 0000.0001) %MON advcfl_wvel_max              =   1.1624562982643E-01
(PID.TID 0000.0001) %MON advcfl_W_hf_max              =   1.2254587522962E-01
(PID.TID 0000.0001) %MON pe_b_mean                    =   6.3088741949767E-04
(PID.TID 0000.0001) %MON ke_max                       =   1.0523257990347E+00
(PID.TID 0000.0001) %MON ke_mean                      =   4.7007143738995E-04
(PID.TID 0000.0001) %MON ke_vol                       =   1.3349969923108E+18
(PID.TID 0000.0001) %MON vort_r_min                   =  -3.9391733659754E-05
(PID.TID 0000.0001) %MON vort_r_max                   =   3.9489041962481E-05
(PID.TID 0000.0001) %MON vort_a_mean                  =  -1.9727864647440E-05
(PID.TID 0000.0001) %MON vort_a_sd                    =   7.4543279525949E-05
(PID.TID 0000.0001) %MON vort_p_mean                  =  -2.1760543885563E-05
(PID.TID 0000.0001) %MON vort_p_sd                    =   9.7245158947815E-05
(PID.TID 0000.0001) %MON surfExpan_theta_mean         =  -1.9966876380867E-06
(PID.TID 0000.0001) %MON surfExpan_salt_mean          =  -1.1614268541513E-07
(PID.TID 0000.0001) // =======================================================
(PID.TID 0000.0001) // End MONITOR dynamic field statistics
(PID.TID 0000.0001) // =======================================================
 cg2d: Sum(rhs),rhsMax =   7.78861636602988E+01  3.03599481959367E-01
 cg2d: Sum(rhs),rhsMax =   7.77812421984697E+01  3.03724001963046E-01
 cg2d: Sum(rhs),rhsMax =   7.76799074819592E+01  3.03780992085540E-01
 cg2d: Sum(rhs),rhsMax =   7.75764840362860E+01  3.03768661341645E-01
 cg2d: Sum(rhs),rhsMax =   7.74656565454352E+01  3.03686790030479E-01
 cg2d: Sum(rhs),rhsMax =   7.73611107310516E+01  3.03535138348491E-01
 cg2d: Sum(rhs),rhsMax =   7.72472272818609E+01  3.03314294700864E-01
 cg2d: Sum(rhs),rhsMax =   7.71358945933371E+01  3.03024528222140E-01
(PID.TID 0000.0001)      cg2d_init_res =   2.88540768963070E-01
(PID.TID 0000.0001)      cg2d_iters(min,last) =      -1      31
(PID.TID 0000.0001)      cg2d_last_res =   2.54596002172702E-05
(PID.TID 0000.0001) // =======================================================
(PID.TID 0000.0001) // Begin MONITOR dynamic field statistics
(PID.TID 0000.0001) // =======================================================
(PID.TID 0000.0001) %MON time_tsnumber                =                    88
(PID.TID 0000.0001) %MON time_secondsf                =   7.9200000000000E+04
(PID.TID 0000.0001) %MON dynstat_eta_max              =   1.0842514236020E+00
(PID.TID 0000.0001) %MON dynstat_eta_min              =  -2.8703254192942E+00
(PID.TID 0000.0001) %MON dynstat_eta_mean             =  -2.4400547016887E-03
(PID.TID 0000.0001) %MON dynstat_eta_sd               =   6.8872908778521E-01
(PID.TID 0000.0001) %MON dynstat_eta_del2             =   8.2001233812361E-05
(PID.TID 0000.0001) %MON dynstat_uvel_max             =   9.6208269210043E-01
(PID.TID 0000.0001) %MON dynstat_uvel_min             =  -1.2961561561788E+00
(PID.TID 0000.0001) %MON dynstat_uvel_mean            =   9.5413427256453E-04
(PID.TID 0000.0001) %MON dynstat_uvel_sd              =   2.1151883709015E-02
(PID.TID 0000.0001) %MON dynstat_uvel_del2            =   1.3216677977464E-05
(PID.TID 0000.0001) %MON dynstat_vvel_max             =   1.3427555108178E+00
(PID.TID 0000.0001) %MON dynstat_vvel_min             =  -9.1008132714691E-01
(PID.TID 0000.0001) %MON dynstat_vvel_mean            =   1.6239117059067E-03
(PID.TID 0000.0001) %MON dynstat_vvel_sd              =   2.2500014813508E-02
(PID.TID 0000.0001) %MON dynstat_vvel_del2            =   1.3005746740230E-05
(PID.TID 0000.0001) %MON dynstat_wvel_max             =   3.8813557612413E-03
(PID.TID 0000.0001) %MON dynstat_wvel_min             =  -2.0605390580707E-03
(PID.TID 0000.0001) %MON dynstat_wvel_mean            =   3.6203639408267E-08
(PID.TID 0000.0001) %MON dynstat_wvel_sd              =   3.1658728290217E-05
(PID.TID 0000.0001) %MON dynstat_wvel_del2            =   5.0865557187035E-08
(PID.TID 0000.0001) %MON dynstat_theta_max            =   3.2609028979179E+01
(PID.TID 0000.0001) %MON dynstat_theta_min            =  -2.0422702421788E+00
(PID.TID 0000.0001) %MON dynstat_theta_mean           =   3.5904991685980E+00
(PID.TID 0000.0001) %MON dynstat_theta_sd             =   4.4361633042222E+00
(PID.TID 0000.0001) %MON dynstat_theta_del2           =   1.0427565963556E-04
(PID.TID 0000.0001) %MON dynstat_salt_max             =   4.0711529992559E+01
(PID.TID 0000.0001) %MON dynstat_salt_min             =   1.8877252448116E+01
(PID.TID 0000.0001) %MON dynstat_salt_mean            =   3.4725615199260E+01
(PID.TID 0000.0001) %MON dynstat_salt_sd              =   3.7707792705769E-01
(PID.TID 0000.0001) %MON dynstat_salt_del2            =   2.5361560188366E-05
(PID.TID 0000.0001) %MON dynstat_sst_max              =   3.2556082947384E+01
(PID.TID 0000.0001) %MON dynstat_sst_min              =  -1.8788540626424E+00
(PID.TID 0000.0001) %MON dynstat_sst_mean             =   1.8484527251874E+01
(PID.TID 0000.0001) %MON dynstat_sst_sd               =   1.0113858922451E+01
(PID.TID 0000.0001) %MON dynstat_sst_del2             =   8.5156220802997E-04
(PID.TID 0000.0001) %MON dynstat_sss_max              =   3.9353029942956E+01
(PID.TID 0000.0001) %MON dynstat_sss_min              =   1.8877252448116E+01
(PID.TID 0000.0001) %MON dynstat_sss_mean             =   3.4687608284450E+01
(PID.TID 0000.0001) %MON dynstat_sss_sd               =   1.1260041170296E+00
(PID.TID 0000.0001) %MON dynstat_sss_del2             =   3.6526179866163E-04
(PID.TID 0000.0001) %MON forcing_qnet_max             =   1.9281220703125E+03
(PID.TID 0000.0001) %MON forcing_qnet_min             =  -8.5536487658549E+02
(PID.TID 0000.0001) %MON forcing_qnet_mean            =  -3.9194567536906E+00
(PID.TID 0000.0001) %MON forcing_qnet_sd              =   1.8631050223282E+02
(PID.TID 0000.0001) %MON forcing_qnet_del2            =   3.8384049592257E-01
(PID.TID 0000.0001) %MON forcing_qsw_max              =   0.0000000000000E+00
(PID.TID 0000.0001) %MON forcing_qsw_min              =  -1.0733231955078E+02
(PID.TID 0000.0001) %MON forcing_qsw_mean             =  -2.0025896223714E+01
(PID.TID 0000.0001) %MON forcing_qsw_sd               =   2.8986620604206E+01
(PID.TID 0000.0001) %MON forcing_qsw_del2             =   2.0588358795090E-02
(PID.TID 0000.0001) %MON forcing_empmr_max            =   1.4968533068895E-03
(PID.TID 0000.0001) %MON forcing_empmr_min            =  -4.3557784520090E-03
(PID.TID 0000.0001) %MON forcing_empmr_mean           =  -4.0266010640558E-06
(PID.TID 0000.0001) %MON forcing_empmr_sd             =   1.3444551562879E-04
(PID.TID 0000.0001) %MON forcing_empmr_del2           =   6.6428775513389E-07
(PID.TID 0000.0001) %MON forcing_fu_max               =   8.5340365767479E-01
(PID.TID 0000.0001) %MON forcing_fu_min               =  -1.1573108434677E+00
(PID.TID 0000.0001) %MON forcing_fu_mean              =   8.2697034512917E-03
(PID.TID 0000.0001) %MON forcing_fu_sd                =   1.0568144252061E-01
(PID.TID 0000.0001) %MON forcing_fu_del2              =   1.5096480448326E-04
(PID.TID 0000.0001) %MON forcing_fv_max               =   1.0288279652596E+00
(PID.TID 0000.0001) %MON forcing_fv_min               =  -9.9548807740212E-01
(PID.TID 0000.0001) %MON forcing_fv_mean              =  -9.4223505415793E-03
(PID.TID 0000.0001) %MON forcing_fv_sd                =   1.0950411811443E-01
(PID.TID 0000.0001) %MON forcing_fv_del2              =   1.4758274449360E-04
(PID.TID 0000.0001) %MON trAdv_CFL_u_max              =   2.3178013820562E-02
(PID.TID 0000.0001) %MON trAdv_CFL_v_max              =   2.4586209039519E-02
(PID.TID 0000.0001) %MON trAdv_CFL_w_max              =   1.2082347354752E-01
(PID.TID 0000.0001) %MON advcfl_uvel_max              =   2.2663881281564E-02
(PID.TID 0000.0001) %MON advcfl_vvel_max              =   2.3835124395951E-02
(PID.TID 0000.0001) %MON advcfl_wvel_max              =   1.2581214870266E-01
(PID.TID 0000.0001) %MON advcfl_W_hf_max              =   1.3269620379865E-01
(PID.TID 0000.0001) %MON pe_b_mean                    =   6.2396591236946E-04
(PID.TID 0000.0001) %MON ke_max                       =   1.0547984125604E+00
(PID.TID 0000.0001) %MON ke_mean                      =   4.6155683449723E-04
(PID.TID 0000.0001) %MON ke_vol                       =   1.3349970021050E+18
(PID.TID 0000.0001) %MON vort_r_min                   =  -3.7736890826734E-05
(PID.TID 0000.0001) %MON vort_r_max                   =   4.0205954063167E-05
(PID.TID 0000.0001) %MON vort_a_mean                  =  -1.9727864647440E-05
(PID.TID 0000.0001) %MON vort_a_sd                    =   7.4543229851453E-05
(PID.TID 0000.0001) %MON vort_p_mean                  =  -2.1760543362293E-05
(PID.TID 0000.0001) %MON vort_p_sd                    =   9.7245242543266E-05
(PID.TID 0000.0001) %MON surfExpan_theta_mean         =  -1.7147841076802E-06
(PID.TID 0000.0001) %MON surfExpan_salt_mean          =  -1.1243823732410E-07
(PID.TID 0000.0001) // =======================================================
(PID.TID 0000.0001) // End MONITOR dynamic field statistics
(PID.TID 0000.0001) // =======================================================
 cg2d: Sum(rhs),rhsMax =   7.70294831896367E+01  3.02667573004393E-01
 cg2d: Sum(rhs),rhsMax =   7.69187088942779E+01  3.02245951307840E-01
 cg2d: Sum(rhs),rhsMax =   7.68312038968333E+01  3.01761671195213E-01
 cg2d: Sum(rhs),rhsMax =   7.67378740896394E+01  3.01218735158796E-01
 cg2d: Sum(rhs),rhsMax =   7.66434541581427E+01  3.00623179928581E-01
 cg2d: Sum(rhs),rhsMax =   7.65512375492315E+01  2.99978737248847E-01
 cg2d: Sum(rhs),rhsMax =   7.64381769095471E+01  2.99293906370626E-01
 cg2d: Sum(rhs),rhsMax =   7.63285280468282E+01  2.98575946529366E-01
(PID.TID 0000.0001)      cg2d_init_res =   2.78051586323219E-01
(PID.TID 0000.0001)      cg2d_iters(min,last) =      -1      32
(PID.TID 0000.0001)      cg2d_last_res =   2.20945906614520E-05
(PID.TID 0000.0001) // =======================================================
(PID.TID 0000.0001) // Begin MONITOR dynamic field statistics
(PID.TID 0000.0001) // =======================================================
(PID.TID 0000.0001) %MON time_tsnumber                =                    96
(PID.TID 0000.0001) %MON time_secondsf                =   8.6400000000000E+04
(PID.TID 0000.0001) %MON dynstat_eta_max              =   1.0813541722986E+00
(PID.TID 0000.0001) %MON dynstat_eta_min              =  -2.8614294095826E+00
(PID.TID 0000.0001) %MON dynstat_eta_mean             =  -2.4145151192648E-03
(PID.TID 0000.0001) %MON dynstat_eta_sd               =   6.8539696484736E-01
(PID.TID 0000.0001) %MON dynstat_eta_del2             =   8.0172664906193E-05
(PID.TID 0000.0001) %MON dynstat_uvel_max             =   9.6631760876032E-01
(PID.TID 0000.0001) %MON dynstat_uvel_min             =  -1.2719455258458E+00
(PID.TID 0000.0001) %MON dynstat_uvel_mean            =   8.5460905621505E-04
(PID.TID 0000.0001) %MON dynstat_uvel_sd              =   2.1006106684704E-02
(PID.TID 0000.0001) %MON dynstat_uvel_del2            =   1.3095364308596E-05
(PID.TID 0000.0001) %MON dynstat_vvel_max             =   1.3499249366671E+00
(PID.TID 0000.0001) %MON dynstat_vvel_min             =  -9.0486860396751E-01
(PID.TID 0000.0001) %MON dynstat_vvel_mean            =   1.5087340089821E-03
(PID.TID 0000.0001) %MON dynstat_vvel_sd              =   2.2271679493321E-02
(PID.TID 0000.0001) %MON dynstat_vvel_del2            =   1.2742325732303E-05
(PID.TID 0000.0001) %MON dynstat_wvel_max             =   4.0778565661644E-03
(PID.TID 0000.0001) %MON dynstat_wvel_min             =  -1.9579121738041E-03
(PID.TID 0000.0001) %MON dynstat_wvel_mean            =   3.3593621404008E-08
(PID.TID 0000.0001) %MON dynstat_wvel_sd              =   3.0964936720513E-05
(PID.TID 0000.0001) %MON dynstat_wvel_del2            =   4.9570423738543E-08
(PID.TID 0000.0001) %MON dynstat_theta_max            =   3.2562700960890E+01
(PID.TID 0000.0001) %MON dynstat_theta_min            =  -2.0422554507014E+00
(PID.TID 0000.0001) %MON dynstat_theta_mean           =   3.5905044103089E+00
(PID.TID 0000.0001) %MON dynstat_theta_sd             =   4.4361927297545E+00
(PID.TID 0000.0001) %MON dynstat_theta_del2           =   1.0382898572006E-04
(PID.TID 0000.0001) %MON dynstat_salt_max             =   4.0711531080407E+01
(PID.TID 0000.0001) %MON dynstat_salt_min             =   1.8878824605835E+01
(PID.TID 0000.0001) %MON dynstat_salt_mean            =   3.4725611774128E+01
(PID.TID 0000.0001) %MON dynstat_salt_sd              =   3.7706285113372E-01
(PID.TID 0000.0001) %MON dynstat_salt_del2            =   2.5208883577689E-05
(PID.TID 0000.0001) %MON dynstat_sst_max              =   3.2562670720452E+01
(PID.TID 0000.0001) %MON dynstat_sst_min              =  -1.8742703860294E+00
(PID.TID 0000.0001) %MON dynstat_sst_mean             =   1.8486637820296E+01
(PID.TID 0000.0001) %MON dynstat_sst_sd               =   1.0116823141148E+01
(PID.TID 0000.0001) %MON dynstat_sst_del2             =   8.4844726131961E-04
(PID.TID 0000.0001) %MON dynstat_sss_max              =   3.9333524303311E+01
(PID.TID 0000.0001) %MON dynstat_sss_min              =   1.8878824605835E+01
(PID.TID 0000.0001) %MON dynstat_sss_mean             =   3.4688284431099E+01
(PID.TID 0000.0001) %MON dynstat_sss_sd               =   1.1267234810413E+00
(PID.TID 0000.0001) %MON dynstat_sss_del2             =   3.6431096674235E-04
(PID.TID 0000.0001) %MON forcing_qnet_max             =   2.0536574707031E+03
(PID.TID 0000.0001) %MON forcing_qnet_min             =  -7.6843646240234E+02
(PID.TID 0000.0001) %MON forcing_qnet_mean            =  -1.7139984706831E+01
(PID.TID 0000.0001) %MON forcing_qnet_sd              =   2.0059282745916E+02
(PID.TID 0000.0001) %MON forcing_qnet_del2            =   3.9600466577631E-01
(PID.TID 0000.0001) %MON forcing_qsw_max              =   0.0000000000000E+00
(PID.TID 0000.0001) %MON forcing_qsw_min              =  -1.0504962197837E+02
(PID.TID 0000.0001) %MON forcing_qsw_mean             =  -2.1853207558702E+01
(PID.TID 0000.0001) %MON forcing_qsw_sd               =   3.0213568743350E+01
(PID.TID 0000.0001) %MON forcing_qsw_del2             =   1.9732798894489E-02
(PID.TID 0000.0001) %MON forcing_empmr_max            =   1.3741048751399E-03
(PID.TID 0000.0001) %MON forcing_empmr_min            =  -7.0867156609893E-03
(PID.TID 0000.0001) %MON forcing_empmr_mean           =  -3.9657016567084E-06
(PID.TID 0000.0001) %MON forcing_empmr_sd             =   1.4526865089948E-04
(PID.TID 0000.0001) %MON forcing_empmr_del2           =   8.5859893191398E-07
(PID.TID 0000.0001) %MON forcing_fu_max               =   7.9896098375320E-01
(PID.TID 0000.0001) %MON forcing_fu_min               =  -1.2614409327507E+00
(PID.TID 0000.0001) %MON forcing_fu_mean              =   7.8249197504628E-03
(PID.TID 0000.0001) %MON forcing_fu_sd                =   1.0472101496108E-01
(PID.TID 0000.0001) %MON forcing_fu_del2              =   1.5195340646723E-04
(PID.TID 0000.0001) %MON forcing_fv_max               =   1.0253835916519E+00
(PID.TID 0000.0001) %MON forcing_fv_min               =  -1.1066352128983E+00
(PID.TID 0000.0001) %MON forcing_fv_mean              =  -9.5555442324688E-03
(PID.TID 0000.0001) %MON forcing_fv_sd                =   1.0981873310209E-01
(PID.TID 0000.0001) %MON forcing_fv_del2              =   1.4816922392629E-04
(PID.TID 0000.0001) %MON trAdv_CFL_u_max              =   2.3082002843526E-02
(PID.TID 0000.0001) %MON trAdv_CFL_v_max              =   2.4631182568327E-02
(PID.TID 0000.0001) %MON trAdv_CFL_w_max              =   1.2553316896120E-01
(PID.TID 0000.0001) %MON advcfl_uvel_max              =   2.2763643650438E-02
(PID.TID 0000.0001) %MON advcfl_vvel_max              =   2.3962388187155E-02
(PID.TID 0000.0001) %MON advcfl_wvel_max              =   1.3072225244595E-01
(PID.TID 0000.0001) %MON advcfl_W_hf_max              =   1.3796148918196E-01
(PID.TID 0000.0001) %MON pe_b_mean                    =   6.1794283810429E-04
(PID.TID 0000.0001) %MON ke_max                       =   1.0584598377078E+00
(PID.TID 0000.0001) %MON ke_mean                      =   4.5340303265317E-04
(PID.TID 0000.0001) %MON ke_vol                       =   1.3349970112676E+18
(PID.TID 0000.0001) %MON vort_r_min                   =  -3.6513414936308E-05
(PID.TID 0000.0001) %MON vort_r_max                   =   3.9548737601401E-05
(PID.TID 0000.0001) %MON vort_a_mean                  =  -1.9727864647440E-05
(PID.TID 0000.0001) %MON vort_a_sd                    =   7.4543177839387E-05
(PID.TID 0000.0001) %MON vort_p_mean                  =  -2.1760542955704E-05
(PID.TID 0000.0001) %MON vort_p_sd                    =   9.7245478382307E-05
(PID.TID 0000.0001) %MON surfExpan_theta_mean         =  -1.5629893592565E-06
(PID.TID 0000.0001) %MON surfExpan_salt_mean          =  -1.1501999550874E-07
(PID.TID 0000.0001) // =======================================================
(PID.TID 0000.0001) // End MONITOR dynamic field statistics
(PID.TID 0000.0001) // =======================================================
(PID.TID 0000.0001) %CHECKPOINT        96 0000000096
 cg2d: Sum(rhs),rhsMax =   7.62392066553058E+01  2.97834022135872E-01
(PID.TID 0000.0001) %CHECKPOINT        97 ckptA
