(PID.TID 0000.0001) 
(PID.TID 0000.0001) // ======================================================
(PID.TID 0000.0001) //                      MITgcm UV
(PID.TID 0000.0001) //                      =========
(PID.TID 0000.0001) // ======================================================
(PID.TID 0000.0001) // execution environment starting up...
(PID.TID 0000.0001) 
(PID.TID 0000.0001) // MITgcmUV version:  checkpoint67b
(PID.TID 0000.0001) // Build user:        estrobac
(PID.TID 0000.0001) // Build host:        borgo041
(PID.TID 0000.0001) // Build date:        Tue Jun 19 12:18:46 EDT 2018
(PID.TID 0000.0001) 
(PID.TID 0000.0001) // =======================================================
(PID.TID 0000.0001) // Execution Environment parameter file "eedata"
(PID.TID 0000.0001) // =======================================================
(PID.TID 0000.0001) ># Example "eedata" file
(PID.TID 0000.0001) ># Lines beginning "#" are comments
(PID.TID 0000.0001) ># nTx - No. threads per process in X
(PID.TID 0000.0001) ># nTy - No. threads per process in Y
(PID.TID 0000.0001) > &EEPARMS
(PID.TID 0000.0001) > useCubedSphereExchange=.TRUE.,
(PID.TID 0000.0001) > nTx=1,
(PID.TID 0000.0001) > nTy=1,
(PID.TID 0000.0001) > &end
(PID.TID 0000.0001) ># Note: Some systems use & as the
(PID.TID 0000.0001) ># namelist terminator. Other systems
(PID.TID 0000.0001) ># use a / character (as shown here).
(PID.TID 0000.0001) 
(PID.TID 0000.0001) // =======================================================
(PID.TID 0000.0001) // Computational Grid Specification ( see files "SIZE.h" )
(PID.TID 0000.0001) //                                  ( and "eedata"       )
(PID.TID 0000.0001) // =======================================================
(PID.TID 0000.0001)      nPx =    6 ; /* No. processes in X */
(PID.TID 0000.0001)      nPy =    1 ; /* No. processes in Y */
(PID.TID 0000.0001)      nSx =    1 ; /* No. tiles in X per process */
(PID.TID 0000.0001)      nSy =    1 ; /* No. tiles in Y per process */
(PID.TID 0000.0001)      sNx =   32 ; /* Tile size in X */
(PID.TID 0000.0001)      sNy =   32 ; /* Tile size in Y */
(PID.TID 0000.0001)      OLx =    4 ; /* Tile overlap distance in X */
(PID.TID 0000.0001)      OLy =    4 ; /* Tile overlap distance in Y */
(PID.TID 0000.0001)      nTx =    1 ; /* No. threads in X per process */
(PID.TID 0000.0001)      nTy =    1 ; /* No. threads in Y per process */
(PID.TID 0000.0001)       Nr =   15 ; /* No. levels in the vertical   */
(PID.TID 0000.0001)       Nx =  192 ; /* Total domain size in X ( = nPx*nSx*sNx ) */
(PID.TID 0000.0001)       Ny =   32 ; /* Total domain size in Y ( = nPy*nSy*sNy ) */
(PID.TID 0000.0001)   nTiles =    1 ; /* Total no. tiles per process ( = nSx*nSy ) */
(PID.TID 0000.0001)   nProcs =    6 ; /* Total no. processes ( = nPx*nPy ) */
(PID.TID 0000.0001) nThreads =    1 ; /* Total no. threads per process ( = nTx*nTy ) */
(PID.TID 0000.0001) usingMPI =    T ; /* Flag used to control whether MPI is in use */
(PID.TID 0000.0001)                   /*  note: To execute a program with MPI calls */
(PID.TID 0000.0001)                   /*  it must be launched appropriately e.g     */
(PID.TID 0000.0001)                   /*  "mpirun -np 64 ......"                    */
(PID.TID 0000.0001) useCoupler=    F ;/* Flag used to control communications with   */
(PID.TID 0000.0001)                   /*  other model components, through a coupler */
(PID.TID 0000.0001) debugMode =    F ; /* print debug msg. (sequence of S/R calls)  */
(PID.TID 0000.0001) printMapIncludesZeros=    F ; /* print zeros in Std.Output maps */
(PID.TID 0000.0001) maxLengthPrt1D=   65 /* maxLength of 1D array printed to StdOut */
(PID.TID 0000.0001) 
(PID.TID 0000.0001) ======= Starting MPI parallel Run =========
(PID.TID 0000.0001)  My Processor Name (len: 10 ) = discover33
(PID.TID 0000.0001)  Located at (  0,  0) on processor grid (0:  5,0:  0)
(PID.TID 0000.0001)  Origin at  (     1,     1) on global grid (1:   192,1:    32)
(PID.TID 0000.0001)  North neighbor = processor 0000
(PID.TID 0000.0001)  South neighbor = processor 0000
(PID.TID 0000.0001)   East neighbor = processor 0001
(PID.TID 0000.0001)   West neighbor = processor 0005
(PID.TID 0000.0001) // ======================================================
(PID.TID 0000.0001) // Mapping of tiles to threads
(PID.TID 0000.0001) // ======================================================
(PID.TID 0000.0001) // -o- Thread   1, tiles (   1:   1,   1:   1)
(PID.TID 0000.0001) 
(PID.TID 0000.0001) W2_READPARMS: file data.exch2 not found
(PID.TID 0000.0001) => use W2_EXCH2 default: regular 6-facets Cube
(PID.TID 0000.0001) W2_useE2ioLayOut=    T ;/* T: use Exch2 glob IO map; F: use model default */
(PID.TID 0000.0001) W2_mapIO        =  -1 ; /* select option for Exch2 global-IO map */
(PID.TID 0000.0001) W2_printMsg     =  -1 ; /* select option for printing information */
(PID.TID 0000.0001) ===== Start setting W2 TOPOLOGY:
(PID.TID 0000.0001)  write to log-file: w2_tile_topology.0000.log
(PID.TID 0000.0001) =====       setting W2 TOPOLOGY: Done
(PID.TID 0000.0001) 
(PID.TID 0000.0001)  INI_PARMS: opening model parameter file "data"
(PID.TID 0000.0001)  OPEN_COPY_DATA_FILE: opening file data
(PID.TID 0000.0001) // =======================================================
(PID.TID 0000.0001) // Parameter file "data"
(PID.TID 0000.0001) // =======================================================
(PID.TID 0000.0001) ># ====================
(PID.TID 0000.0001) ># | Model parameters |
(PID.TID 0000.0001) ># ====================
(PID.TID 0000.0001) >#
(PID.TID 0000.0001) ># Continuous equation parameters
(PID.TID 0000.0001) > &PARM01
(PID.TID 0000.0001) > tRef=15*20.,
(PID.TID 0000.0001) > sRef=15*35.,
(PID.TID 0000.0001) > viscAh =3.E5,
(PID.TID 0000.0001) > viscAr =1.E-3,
(PID.TID 0000.0001) > diffKrT=3.E-5,
(PID.TID 0000.0001) > diffKrS=3.E-5,
(PID.TID 0000.0001) > ivdc_kappa=10.,
(PID.TID 0000.0001) > implicitDiffusion=.TRUE.,
(PID.TID 0000.0001) > rhonil=1035.,
(PID.TID 0000.0001) > rhoConstFresh=1000.,
(PID.TID 0000.0001) > eosType='JMD95Z',
(PID.TID 0000.0001) > staggerTimeStep=.TRUE.,
(PID.TID 0000.0001) > vectorInvariantMomentum=.TRUE.,
(PID.TID 0000.0001) > implicitFreeSurface=.TRUE.,
(PID.TID 0000.0001) > exactConserv=.TRUE.,
(PID.TID 0000.0001) > select_rStar=2,
(PID.TID 0000.0001) > nonlinFreeSurf=4,
(PID.TID 0000.0001) > useRealFreshWaterFlux=.TRUE.,
(PID.TID 0000.0001) > allowFreezing=.TRUE.,
(PID.TID 0000.0001) > hFacMin=.1,
(PID.TID 0000.0001) > hFacMinDr=20.,
(PID.TID 0000.0001) > readBinaryPrec=64,
(PID.TID 0000.0001) > useSingleCpuIo=.TRUE.,
(PID.TID 0000.0001) > &end
(PID.TID 0000.0001) >
(PID.TID 0000.0001) ># Elliptic solver parameters
(PID.TID 0000.0001) > &PARM02
(PID.TID 0000.0001) > &end
(PID.TID 0000.0001) >
(PID.TID 0000.0001) ># Time stepping parameters
(PID.TID 0000.0001) > &PARM03
(PID.TID 0000.0001) > nIter0           = 72000,
(PID.TID 0000.0001) >  nTimeSteps       = 96,
(PID.TID 0000.0001) > deltaT           = 900.,
(PID.TID 0000.0001) > monitorFreq      = 1.,
(PID.TID 0000.0001) > abEps            = 0.1,
(PID.TID 0000.0001) > tracForcingOutAB = 1,
(PID.TID 0000.0001) > &end
(PID.TID 0000.0001) >
(PID.TID 0000.0001) ># Gridding parameters
(PID.TID 0000.0001) > &PARM04
(PID.TID 0000.0001) > usingCurvilinearGrid=.TRUE.,
(PID.TID 0000.0001) > horizGridFile='grid_cs32',
(PID.TID 0000.0001) > delR= 50., 70., 100., 140., 190.,
(PID.TID 0000.0001) >       240., 290., 340., 390., 440.,
(PID.TID 0000.0001) >       490., 540., 590., 640., 690.,
(PID.TID 0000.0001) > &end
(PID.TID 0000.0001) >
(PID.TID 0000.0001) ># Input datasets
(PID.TID 0000.0001) > &PARM05
(PID.TID 0000.0001) > bathyFile      ='bathy_Hmin50.bin',
(PID.TID 0000.0001) > &end
(PID.TID 0000.0001) 
(PID.TID 0000.0001)  INI_PARMS ; starts to read PARM01
(PID.TID 0000.0001)  INI_PARMS ; read PARM01 : OK
(PID.TID 0000.0001)  INI_PARMS ; starts to read PARM02
(PID.TID 0000.0001)  INI_PARMS ; read PARM02 : OK
(PID.TID 0000.0001)  INI_PARMS ; starts to read PARM03
(PID.TID 0000.0001)  INI_PARMS ; read PARM03 : OK
(PID.TID 0000.0001)  INI_PARMS ; starts to read PARM04
(PID.TID 0000.0001)  INI_PARMS ; read PARM04 : OK
(PID.TID 0000.0001)  INI_PARMS ; starts to read PARM05
(PID.TID 0000.0001)  INI_PARMS ; read PARM05 : OK
(PID.TID 0000.0001)  INI_PARMS: finished reading file "data"
(PID.TID 0000.0001)  PACKAGES_BOOT: opening data.pkg
(PID.TID 0000.0001)  OPEN_COPY_DATA_FILE: opening file data.pkg
(PID.TID 0000.0001) // =======================================================
(PID.TID 0000.0001) // Parameter file "data.pkg"
(PID.TID 0000.0001) // =======================================================
(PID.TID 0000.0001) ># Packages
(PID.TID 0000.0001) > &PACKAGES
(PID.TID 0000.0001) > useGMRedi=.TRUE.,
(PID.TID 0000.0001) > useDiagnostics=.TRUE.,
(PID.TID 0000.0001) > &end
(PID.TID 0000.0001) 
(PID.TID 0000.0001)  PACKAGES_BOOT: finished reading data.pkg
(PID.TID 0000.0001)  PACKAGES_BOOT: On/Off package Summary
 --------  pkgs with a standard "usePKG" On/Off switch in "data.pkg":  --------
 pkg/gmredi               compiled   and   used ( useGMRedi                = T )
 pkg/bulk_force           compiled but not used ( useBulkForce             = F )
 pkg/diagnostics          compiled   and   used ( useDiagnostics           = T )
 -------- pkgs without standard "usePKG" On/Off switch in "data.pkg":  --------
 pkg/generic_advdiff      compiled   and   used ( useGAD                   = T )
 pkg/mom_common           compiled   and   used ( momStepping              = T )
 pkg/mom_vecinv           compiled   and   used ( +vectorInvariantMomentum = T )
 pkg/mom_fluxform         compiled but not used ( & not vectorInvariantMom = F )
 pkg/monitor              compiled   and   used ( monitorFreq > 0.         = T )
 pkg/timeave              compiled but not used ( taveFreq > 0.            = F )
 pkg/debug                compiled but not used ( debugMode                = F )
 pkg/exch2                compiled   and   used
 pkg/rw                   compiled   and   used
 pkg/mdsio                compiled   and   used
(PID.TID 0000.0001)  PACKAGES_BOOT: End of package Summary
(PID.TID 0000.0001) 
(PID.TID 0000.0001)  GM_READPARMS: opening data.gmredi
(PID.TID 0000.0001)  OPEN_COPY_DATA_FILE: opening file data.gmredi
(PID.TID 0000.0001) // =======================================================
(PID.TID 0000.0001) // Parameter file "data.gmredi"
(PID.TID 0000.0001) // =======================================================
(PID.TID 0000.0001) ># GM+Redi package parameters:
(PID.TID 0000.0001) >
(PID.TID 0000.0001) >#-from MOM :
(PID.TID 0000.0001) ># GM_background_K: 	G & Mc.W  diffusion coefficient
(PID.TID 0000.0001) ># GM_maxSlope    :	max slope of isopycnals
(PID.TID 0000.0001) ># GM_Scrit       :	transition for scaling diffusion coefficient
(PID.TID 0000.0001) ># GM_Sd          :	half width scaling for diffusion coefficient
(PID.TID 0000.0001) ># GM_taper_scheme:	slope clipping or one of the tapering schemes
(PID.TID 0000.0001) ># GM_Kmin_horiz  :	horizontal diffusion minimum value
(PID.TID 0000.0001) >
(PID.TID 0000.0001) >#-Option parameters (needs to "define" options in GMREDI_OPTIONS.h")
(PID.TID 0000.0001) ># GM_isopycK     :	isopycnal diffusion coefficient (default=GM_background_K)
(PID.TID 0000.0001) ># GM_AdvForm     :	turn on GM Advective form       (default=Skew flux form)
(PID.TID 0000.0001) >
(PID.TID 0000.0001) > &GM_PARM01
(PID.TID 0000.0001) >  GM_background_K    = 800.,
(PID.TID 0000.0001) >  GM_taper_scheme    = 'gkw91',
(PID.TID 0000.0001) >  GM_maxSlope        = 1.e-2,
(PID.TID 0000.0001) >  GM_Kmin_horiz      = 50.,
(PID.TID 0000.0001) >  GM_Scrit           = 4.e-3,
(PID.TID 0000.0001) >  GM_Sd              = 1.e-3,
(PID.TID 0000.0001) ># GM_Visbeck_alpha   = 0.,
(PID.TID 0000.0001) ># GM_Visbeck_length  = 2.e+5,
(PID.TID 0000.0001) ># GM_Visbeck_depth   = 1.e+3,
(PID.TID 0000.0001) ># GM_Visbeck_maxval_K= 2.5e+3,
(PID.TID 0000.0001) > &end
(PID.TID 0000.0001) >
(PID.TID 0000.0001) >
(PID.TID 0000.0001) 
(PID.TID 0000.0001)  GM_READPARMS: finished reading data.gmredi
(PID.TID 0000.0001)  DIAGNOSTICS_READPARMS: opening data.diagnostics
(PID.TID 0000.0001)  OPEN_COPY_DATA_FILE: opening file data.diagnostics
(PID.TID 0000.0001) // =======================================================
(PID.TID 0000.0001) // Parameter file "data.diagnostics"
(PID.TID 0000.0001) // =======================================================
(PID.TID 0000.0001) ># Diagnostic Package Choices
(PID.TID 0000.0001) >#--------------------
(PID.TID 0000.0001) >#  dumpAtLast (logical): always write output at the end of simulation (default=F)
(PID.TID 0000.0001) >#  diag_mnc   (logical): write to NetCDF files (default=useMNC)
(PID.TID 0000.0001) >#--for each output-stream:
(PID.TID 0000.0001) >#  fileName(n) : prefix of the output file name (max 80c long) for outp.stream n
(PID.TID 0000.0001) >#  frequency(n):< 0 : write snap-shot output every |frequency| seconds
(PID.TID 0000.0001) >#               > 0 : write time-average output every frequency seconds
(PID.TID 0000.0001) >#  timePhase(n)     : write at time = timePhase + multiple of |frequency|
(PID.TID 0000.0001) >#    averagingFreq  : frequency (in s) for periodic averaging interval
(PID.TID 0000.0001) >#    averagingPhase : phase     (in s) for periodic averaging interval
(PID.TID 0000.0001) >#    repeatCycle    : number of averaging intervals in 1 cycle
(PID.TID 0000.0001) >#  levels(:,n) : list of levels to write to file (Notes: declared as REAL)
(PID.TID 0000.0001) >#                when this entry is missing, select all common levels of this list
(PID.TID 0000.0001) >#  fields(:,n) : list of selected diagnostics fields (8.c) in outp.stream n
(PID.TID 0000.0001) >#                (see "available_diagnostics.log" file for the full list of diags)
(PID.TID 0000.0001) >#  missing_value(n) : missing value for real-type fields in output file "n"
(PID.TID 0000.0001) >#  fileFlags(n)     : specific code (8c string) for output file "n"
(PID.TID 0000.0001) >#--------------------
(PID.TID 0000.0001) ># oceTAUX  zonal surface wind stress, >0 increases uVel (N/m^2)
(PID.TID 0000.0001) ># oceTAUY  meridional surf. wind stress, >0 increases vVel (N/m^2)
(PID.TID 0000.0001) ># oceFWflx net surface Fresh-Water flux into ocean, >0 decreases salinity (kg/m^2/s)
(PID.TID 0000.0001) ># oceSflux net surface Salt flux into the ocean, >0 increases salinity (g/m^2/s)
(PID.TID 0000.0001) ># oceQnet  net surface heat flux into the ocean, >0 increases theta (W/m^2)
(PID.TID 0000.0001) ># oceQsw   net Short-Wave radiation (+=down), >0 increases theta (W/m^2)
(PID.TID 0000.0001) ># SSS      Sea Surface Salinity (g/kg)
(PID.TID 0000.0001) ># SST      Sea Surface Temperature (degC)
(PID.TID 0000.0001) ># UVEL1    Zonal Surface Velocity (m/s)
(PID.TID 0000.0001) ># VVEL1    Meridional Surface Velocity (m/s)
(PID.TID 0000.0001) >
(PID.TID 0000.0001) > &DIAGNOSTICS_LIST
(PID.TID 0000.0001) >   frequency(1)  = -3600.,
(PID.TID 0000.0001) >    fields(1,1)  = 'oceTAUX ',
(PID.TID 0000.0001) >    filename(1)  = 'oceTAUX',
(PID.TID 0000.0001) >   frequency(2)  = -3600.,
(PID.TID 0000.0001) >    fields(1,2)  = 'oceTAUY ',
(PID.TID 0000.0001) >    filename(2)  = 'oceTAUY',
(PID.TID 0000.0001) >   frequency(3)  = -3600.,
(PID.TID 0000.0001) >    fields(1,3)  = 'oceFWflx',
(PID.TID 0000.0001) >    filename(3)  = 'oceFWflx',
(PID.TID 0000.0001) >   frequency(4)  = -3600.,
(PID.TID 0000.0001) >    fields(1,4)  = 'oceSflux',
(PID.TID 0000.0001) >    filename(4)  = 'oceSflux',
(PID.TID 0000.0001) >   frequency(5)  = -3600.,
(PID.TID 0000.0001) >    fields(1,5)  = 'oceQnet ',
(PID.TID 0000.0001) >    filename(5)  = 'oceQnet',
(PID.TID 0000.0001) >   frequency(6)  = -3600.,
(PID.TID 0000.0001) >    fields(1,6)  = 'oceQsw  ',
(PID.TID 0000.0001) >    filename(6)  = 'oceQsw',
(PID.TID 0000.0001) >   frequency(7)  = -3600.,
(PID.TID 0000.0001) >    fields(1,7)  = 'SALT    ',
(PID.TID 0000.0001) >    levels(1,7)  = 1.,
(PID.TID 0000.0001) >    filename(7)  = 'SSS',
(PID.TID 0000.0001) >   frequency(8)  = -3600.,
(PID.TID 0000.0001) >    fields(1,8)  = 'THETA   ',
(PID.TID 0000.0001) >    levels(1,8)  = 1.,
(PID.TID 0000.0001) >    filename(8)  = 'SST',
(PID.TID 0000.0001) >   frequency(9)  = -3600.,
(PID.TID 0000.0001) >    fields(1,9)  = 'UVELMASS',
(PID.TID 0000.0001) >    levels(1,9)  = 1.,
(PID.TID 0000.0001) >    filename(9)  = 'UVEL1',
(PID.TID 0000.0001) >   frequency(10) = -3600.,
(PID.TID 0000.0001) >    fields(1,10) = 'VVELMASS',
(PID.TID 0000.0001) >    levels(1,10) = 1.,
(PID.TID 0000.0001) >    filename(10) = 'VVEL1',
(PID.TID 0000.0001) > &
(PID.TID 0000.0001) >
(PID.TID 0000.0001) > &DIAG_STATIS_PARMS
(PID.TID 0000.0001) > &
(PID.TID 0000.0001) 
(PID.TID 0000.0001) S/R DIAGNOSTICS_READPARMS, read namelist "diagnostics_list": start
(PID.TID 0000.0001) S/R DIAGNOSTICS_READPARMS, read namelist "diagnostics_list": OK
(PID.TID 0000.0001) S/R DIAGNOSTICS_READPARMS, read namelist "DIAG_STATIS_PARMS": start
(PID.TID 0000.0001) S/R DIAGNOSTICS_READPARMS, read namelist "DIAG_STATIS_PARMS": OK
(PID.TID 0000.0001)  DIAGNOSTICS_READPARMS: global parameter summary:
(PID.TID 0000.0001)  dumpAtLast = /* always write time-ave diags at the end */
(PID.TID 0000.0001)                   F
(PID.TID 0000.0001)     ;
(PID.TID 0000.0001)  diag_mnc =   /* write NetCDF output files */
(PID.TID 0000.0001)                   F
(PID.TID 0000.0001)     ;
(PID.TID 0000.0001)  useMissingValue = /* put MissingValue where mask = 0 */
(PID.TID 0000.0001)                   F
(PID.TID 0000.0001)     ;
(PID.TID 0000.0001)  diagCG_maxIters = /* max number of iters in diag_cg2d */
(PID.TID 0000.0001)                     150
(PID.TID 0000.0001)     ;
(PID.TID 0000.0001)  diagCG_resTarget = /* residual target for diag_cg2d */
(PID.TID 0000.0001)                 1.000000000000000E-07
(PID.TID 0000.0001)     ;
(PID.TID 0000.0001)  diagCG_pcOffDFac = /* preconditioner off-diagonal factor */
(PID.TID 0000.0001)                 9.611687812379854E-01
(PID.TID 0000.0001)     ;
(PID.TID 0000.0001) -----------------------------------------------------
(PID.TID 0000.0001)  DIAGNOSTICS_READPARMS: active diagnostics summary:
(PID.TID 0000.0001) -----------------------------------------------------
(PID.TID 0000.0001) Creating Output Stream: oceTAUX
(PID.TID 0000.0001) Output Frequency:      -3600.000000 ; Phase:        1800.000000
(PID.TID 0000.0001)  Averaging Freq.:          0.000000 , Phase:           0.000000 , Cycle:   1
(PID.TID 0000.0001)  missing value: -9.990000000000E+02
(PID.TID 0000.0001)  Levels:    will be set later
(PID.TID 0000.0001)  Fields:    oceTAUX
(PID.TID 0000.0001) Creating Output Stream: oceTAUY
(PID.TID 0000.0001) Output Frequency:      -3600.000000 ; Phase:        1800.000000
(PID.TID 0000.0001)  Averaging Freq.:          0.000000 , Phase:           0.000000 , Cycle:   1
(PID.TID 0000.0001)  missing value: -9.990000000000E+02
(PID.TID 0000.0001)  Levels:    will be set later
(PID.TID 0000.0001)  Fields:    oceTAUY
(PID.TID 0000.0001) Creating Output Stream: oceFWflx
(PID.TID 0000.0001) Output Frequency:      -3600.000000 ; Phase:        1800.000000
(PID.TID 0000.0001)  Averaging Freq.:          0.000000 , Phase:           0.000000 , Cycle:   1
(PID.TID 0000.0001)  missing value: -9.990000000000E+02
(PID.TID 0000.0001)  Levels:    will be set later
(PID.TID 0000.0001)  Fields:    oceFWflx
(PID.TID 0000.0001) Creating Output Stream: oceSflux
(PID.TID 0000.0001) Output Frequency:      -3600.000000 ; Phase:        1800.000000
(PID.TID 0000.0001)  Averaging Freq.:          0.000000 , Phase:           0.000000 , Cycle:   1
(PID.TID 0000.0001)  missing value: -9.990000000000E+02
(PID.TID 0000.0001)  Levels:    will be set later
(PID.TID 0000.0001)  Fields:    oceSflux
(PID.TID 0000.0001) Creating Output Stream: oceQnet
(PID.TID 0000.0001) Output Frequency:      -3600.000000 ; Phase:        1800.000000
(PID.TID 0000.0001)  Averaging Freq.:          0.000000 , Phase:           0.000000 , Cycle:   1
(PID.TID 0000.0001)  missing value: -9.990000000000E+02
(PID.TID 0000.0001)  Levels:    will be set later
(PID.TID 0000.0001)  Fields:    oceQnet
(PID.TID 0000.0001) Creating Output Stream: oceQsw
(PID.TID 0000.0001) Output Frequency:      -3600.000000 ; Phase:        1800.000000
(PID.TID 0000.0001)  Averaging Freq.:          0.000000 , Phase:           0.000000 , Cycle:   1
(PID.TID 0000.0001)  missing value: -9.990000000000E+02
(PID.TID 0000.0001)  Levels:    will be set later
(PID.TID 0000.0001)  Fields:    oceQsw
(PID.TID 0000.0001) Creating Output Stream: SSS
(PID.TID 0000.0001) Output Frequency:      -3600.000000 ; Phase:        1800.000000
(PID.TID 0000.0001)  Averaging Freq.:          0.000000 , Phase:           0.000000 , Cycle:   1
(PID.TID 0000.0001)  missing value: -9.990000000000E+02
(PID.TID 0000.0001)  Levels:       1.
(PID.TID 0000.0001)  Fields:    SALT
(PID.TID 0000.0001) Creating Output Stream: SST
(PID.TID 0000.0001) Output Frequency:      -3600.000000 ; Phase:        1800.000000
(PID.TID 0000.0001)  Averaging Freq.:          0.000000 , Phase:           0.000000 , Cycle:   1
(PID.TID 0000.0001)  missing value: -9.990000000000E+02
(PID.TID 0000.0001)  Levels:       1.
(PID.TID 0000.0001)  Fields:    THETA
(PID.TID 0000.0001) Creating Output Stream: UVEL1
(PID.TID 0000.0001) Output Frequency:      -3600.000000 ; Phase:        1800.000000
(PID.TID 0000.0001)  Averaging Freq.:          0.000000 , Phase:           0.000000 , Cycle:   1
(PID.TID 0000.0001)  missing value: -9.990000000000E+02
(PID.TID 0000.0001)  Levels:       1.
(PID.TID 0000.0001)  Fields:    UVELMASS
(PID.TID 0000.0001) Creating Output Stream: VVEL1
(PID.TID 0000.0001) Output Frequency:      -3600.000000 ; Phase:        1800.000000
(PID.TID 0000.0001)  Averaging Freq.:          0.000000 , Phase:           0.000000 , Cycle:   1
(PID.TID 0000.0001)  missing value: -9.990000000000E+02
(PID.TID 0000.0001)  Levels:       1.
(PID.TID 0000.0001)  Fields:    VVELMASS
(PID.TID 0000.0001) -----------------------------------------------------
(PID.TID 0000.0001)  DIAGNOSTICS_READPARMS: statistics diags. summary:
(PID.TID 0000.0001) -----------------------------------------------------
(PID.TID 0000.0001) 
(PID.TID 0000.0001) SET_PARMS: done
(PID.TID 0000.0001) Enter INI_VERTICAL_GRID: setInterFDr=    T ; setCenterDr=    F
(PID.TID 0000.0001) tile:   1 ; Read from file grid_cs32.face001.bin
(PID.TID 0000.0001)   => xC yC dxF dyF rA xG yG dxV dyU rAz dxC dyC rAw rAs dxG dyG AngleCS AngleSN
(PID.TID 0000.0001) %MON XC_max                       =   1.7854351589505E+02
(PID.TID 0000.0001) %MON XC_min                       =  -1.7854351589505E+02
(PID.TID 0000.0001) %MON XC_mean                      =  -4.6999441375798E-15
(PID.TID 0000.0001) %MON XC_sd                        =   1.0355545336287E+02
(PID.TID 0000.0001) %MON XG_max                       =   1.8000000000000E+02
(PID.TID 0000.0001) %MON XG_min                       =  -1.7708797161002E+02
(PID.TID 0000.0001) %MON XG_mean                      =   1.8603515625000E+00
(PID.TID 0000.0001) %MON XG_sd                        =   1.0357130300504E+02
(PID.TID 0000.0001) %MON DXC_max                      =   3.2375185836900E+05
(PID.TID 0000.0001) %MON DXC_min                      =   1.1142031410131E+05
(PID.TID 0000.0001) %MON DXC_mean                     =   2.8605689051214E+05
(PID.TID 0000.0001) %MON DXC_sd                       =   3.4042087138252E+04
(PID.TID 0000.0001) %MON DXF_max                      =   3.2369947500827E+05
(PID.TID 0000.0001) %MON DXF_min                      =   1.2020820513318E+05
(PID.TID 0000.0001) %MON DXF_mean                     =   2.8605437324820E+05
(PID.TID 0000.0001) %MON DXF_sd                       =   3.4050524252539E+04
(PID.TID 0000.0001) %MON DXG_max                      =   3.2375195872773E+05
(PID.TID 0000.0001) %MON DXG_min                      =   1.0098378008791E+05
(PID.TID 0000.0001) %MON DXG_mean                     =   2.8603818508931E+05
(PID.TID 0000.0001) %MON DXG_sd                       =   3.4140406908005E+04
(PID.TID 0000.0001) %MON DXV_max                      =   3.2380418162750E+05
(PID.TID 0000.0001) %MON DXV_min                      =   8.0152299824136E+04
(PID.TID 0000.0001) %MON DXV_mean                     =   2.8603970633619E+05
(PID.TID 0000.0001) %MON DXV_sd                       =   3.4145142117723E+04
(PID.TID 0000.0001) %MON YC_max                       =   8.7940663871962E+01
(PID.TID 0000.0001) %MON YC_min                       =  -8.7940663871962E+01
(PID.TID 0000.0001) %MON YC_mean                      =   0.0000000000000E+00
(PID.TID 0000.0001) %MON YC_sd                        =   3.8676242969072E+01
(PID.TID 0000.0001) %MON YG_max                       =   9.0000000000000E+01
(PID.TID 0000.0001) %MON YG_min                       =  -9.0000000000000E+01
(PID.TID 0000.0001) %MON YG_mean                      =  -1.1842378929335E-15
(PID.TID 0000.0001) %MON YG_sd                        =   3.8676895860710E+01
(PID.TID 0000.0001) %MON DYC_max                      =   3.2375185836900E+05
(PID.TID 0000.0001) %MON DYC_min                      =   1.1142031410131E+05
(PID.TID 0000.0001) %MON DYC_mean                     =   2.8605689051214E+05
(PID.TID 0000.0001) %MON DYC_sd                       =   3.4042087138252E+04
(PID.TID 0000.0001) %MON DYF_max                      =   3.2369947500827E+05
(PID.TID 0000.0001) %MON DYF_min                      =   1.2020820513318E+05
(PID.TID 0000.0001) %MON DYF_mean                     =   2.8605437324820E+05
(PID.TID 0000.0001) %MON DYF_sd                       =   3.4050524252539E+04
(PID.TID 0000.0001) %MON DYG_max                      =   3.2375195872773E+05
(PID.TID 0000.0001) %MON DYG_min                      =   1.0098378008791E+05
(PID.TID 0000.0001) %MON DYG_mean                     =   2.8603818508931E+05
(PID.TID 0000.0001) %MON DYG_sd                       =   3.4140406908005E+04
(PID.TID 0000.0001) %MON DYU_max                      =   3.2380418162750E+05
(PID.TID 0000.0001) %MON DYU_min                      =   8.0152299824136E+04
(PID.TID 0000.0001) %MON DYU_mean                     =   2.8603970633619E+05
(PID.TID 0000.0001) %MON DYU_sd                       =   3.4145142117723E+04
(PID.TID 0000.0001) %MON RA_max                       =   1.0479260248419E+11
(PID.TID 0000.0001) %MON RA_min                       =   1.4019007022556E+10
(PID.TID 0000.0001) %MON RA_mean                      =   8.2992246709265E+10
(PID.TID 0000.0001) %MON RA_sd                        =   1.7509089299457E+10
(PID.TID 0000.0001) %MON RAW_max                      =   1.0480965274559E+11
(PID.TID 0000.0001) %MON RAW_min                      =   1.2166903467143E+10
(PID.TID 0000.0001) %MON RAW_mean                     =   8.2992246709235E+10
(PID.TID 0000.0001) %MON RAW_sd                       =   1.7481917919656E+10
(PID.TID 0000.0001) %MON RAS_max                      =   1.0480965274559E+11
(PID.TID 0000.0001) %MON RAS_min                      =   1.2166903467143E+10
(PID.TID 0000.0001) %MON RAS_mean                     =   8.2992246709235E+10
(PID.TID 0000.0001) %MON RAS_sd                       =   1.7481917919656E+10
(PID.TID 0000.0001) %MON RAZ_max                      =   1.0484349334619E+11
(PID.TID 0000.0001) %MON RAZ_min                      =   8.8317900612505E+09
(PID.TID 0000.0001) %MON RAZ_mean                     =   8.2992246709235E+10
(PID.TID 0000.0001) %MON RAZ_sd                       =   1.7482297311044E+10
(PID.TID 0000.0001) %MON AngleCS_max                  =   9.9999994756719E-01
(PID.TID 0000.0001) %MON AngleCS_min                  =  -9.9968286884824E-01
(PID.TID 0000.0001) %MON AngleCS_mean                 =   3.3078922539000E-01
(PID.TID 0000.0001) %MON AngleCS_sd                   =   6.2496278958502E-01
(PID.TID 0000.0001) %MON AngleSN_max                  =   9.9968286884824E-01
(PID.TID 0000.0001) %MON AngleSN_min                  =  -9.9999994756719E-01
(PID.TID 0000.0001) %MON AngleSN_mean                 =  -3.3078922539000E-01
(PID.TID 0000.0001) %MON AngleSN_sd                   =   6.2496278958502E-01
(PID.TID 0000.0001)  MDS_READ_FIELD: opening global file: bathy_Hmin50.bin
(PID.TID 0000.0001) // =======================================================
(PID.TID 0000.0001) // Field Model R_low (ini_masks_etc)
(PID.TID 0000.0001) // CMIN =         -5.200000000000000E+03
(PID.TID 0000.0001) // CMAX =         -5.000000000000000E+01
(PID.TID 0000.0001) // CINT =          1.907407407407407E+02
(PID.TID 0000.0001) // SYMBOLS (CMIN->CMAX): -abcdefghijklmnopqrstuvwxyz+
(PID.TID 0000.0001) //                  0.0: .
(PID.TID 0000.0001) // RANGE I (Lo:Hi:Step):(    -3:    36:     1)
(PID.TID 0000.0001) // RANGE J (Lo:Hi:Step):(    36:    -3:    -1)
(PID.TID 0000.0001) // RANGE K (Lo:Hi:Step):(   1:   1:   1)
(PID.TID 0000.0001) // =======================================================
(PID.TID 0000.0001) K =   1
(PID.TID 0000.0001) //                I=6       I=16      I=26      I=36
(PID.TID 0000.0001) // |--J--|321012345|789012345|789012345|789012345|
(PID.TID 0000.0001) //     36 cbbc-ddcbcdehkhhmn..++..................
(PID.TID 0000.0001) //     35 dcac--cbbeefjkfefw+..........zpu........
(PID.TID 0000.0001) //     34 d--ba-abcehjnldcclz+........spps........
(PID.TID 0000.0001) //     33 --abbbccceiomkfdbbc+.......+s...........
(PID.TID 0000.0001) //     32 --bddefhhkqqlgfaakqz..v.+..+............
(PID.TID 0000.0001) //     31 abbcffijnpnqneaaat..umrr+s.z............
(PID.TID 0000.0001) //     30 --adgillkkkifcadcx.ymmqzqikvnnps........
(PID.TID 0000.0001) //     29 --cfiljigfjd--efdozy...+ximpnnuz........
(PID.TID 0000.0001) //     28 -abgkhfcccea-bdei........t..............
(PID.TID 0000.0001) //     27 -acghfbaaaa-achmy......................+
(PID.TID 0000.0001) //     26 -adhfca-----bfiv.......................+
(PID.TID 0000.0001) //     25 -achfa------ch+..................w......
(PID.TID 0000.0001) //     24 aaeifa--acbcei...................w......
(PID.TID 0000.0001) //     23 abfida-aabchjk...................zz.....
(PID.TID 0000.0001) //     22 -afhfaa---bfgi....................zz..rn
(PID.TID 0000.0001) //     21 babcgca----abe.....................ysstl
(PID.TID 0000.0001) //     20 fbbbcgfcaa-aae+.......................lc
(PID.TID 0000.0001) //     19 zmfeccdghfeegcbt......................aa
(PID.TID 0000.0001) //     18 ..wifedfkhfegbbcivlqfoz..............jaa
(PID.TID 0000.0001) //     17 ..+wfeefikhgcbbccaaacgn.............icaa
(PID.TID 0000.0001) //     16 ....wiheddeccdfhfbabdfl............jdbad
(PID.TID 0000.0001) //     15 ......ylea--acfihebcbbes..........sfcbbn
(PID.TID 0000.0001) //     14 ........c---acgkhdcc--di..........ofddch
(PID.TID 0000.0001) //     13 .......+b----cfkhec---afz.........nhfdff
(PID.TID 0000.0001) //     12 .......ec----chjhec---ag..........skiqdd
(PID.TID 0000.0001) //     11 ......pdca--achlheba--ai..........nkn.fd
(PID.TID 0000.0001) //     10 ......wfdb--achlhea---an.........uos..dc
(PID.TID 0000.0001) //      9 ......vgec---bfikca--cjl+.......+nnv.+cc
(PID.TID 0000.0001) //      8 .....zleca---afjfca--hdfz.......vkky.jce
(PID.TID 0000.0001) //      7 ...+zohec--abcfkhecbchbdx.......qiht.faa
(PID.TID 0000.0001) //      6 ..+yomfddcaabefkifdchaadt......uqdeisc--
(PID.TID 0000.0001) //      5 ..+nhgffkghccfhkhffgdaackz....uoibcimlaa
(PID.TID 0000.0001) //      4 .+ujhgfllfhdffhkfffca-aady...llnabdopfcb
(PID.TID 0000.0001) //      3 +vjggfcceeffffjlkjgaa---bfvheeln-aesphfd
(PID.TID 0000.0001) //      2 qifeecbbccddefilihecbaacbaajfega-aesqhff
(PID.TID 0000.0001) //      1 ebbbbaaaaaccdfhlhfefdcccaabjefbaaafonhgl
(PID.TID 0000.0001) //      0 -aaaaaaa-aacccfikkhecccbbbaaabaadfkllilm
(PID.TID 0000.0001) //     -1 --aaaaa----aacffiljgfffcca--adfikkiikimi
(PID.TID 0000.0001) //     -2 --aaa-------acdefinmlgiieb-chnnnmlmlfklk
(PID.TID 0000.0001) //     -3 a--a---aa---aedeegknmlgiigcdfhpokkimdkmk
(PID.TID 0000.0001) // =======================================================
(PID.TID 0000.0001) // END OF FIELD                                          =
(PID.TID 0000.0001) // =======================================================
(PID.TID 0000.0001) 
(PID.TID 0000.0001) // =======================================================
(PID.TID 0000.0001) // Field Model Ro_surf (ini_masks_etc)
(PID.TID 0000.0001) // CMIN =          1.000000000000000E+32
(PID.TID 0000.0001) // CMAX =         -1.000000000000000E+32
(PID.TID 0000.0001) // CINT =          0.000000000000000E+00
(PID.TID 0000.0001) // SYMBOLS (CMIN->CMAX): -abcdefghijklmnopqrstuvwxyz+
(PID.TID 0000.0001) //                  0.0: .
(PID.TID 0000.0001) // RANGE I (Lo:Hi:Step):(    -3:    36:     1)
(PID.TID 0000.0001) // RANGE J (Lo:Hi:Step):(    36:    -3:    -1)
(PID.TID 0000.0001) // RANGE K (Lo:Hi:Step):(   1:   1:   1)
(PID.TID 0000.0001) // =======================================================
(PID.TID 0000.0001) // =======================================================
(PID.TID 0000.0001) // END OF FIELD                                          =
(PID.TID 0000.0001) // =======================================================
(PID.TID 0000.0001) 
(PID.TID 0000.0001) // =======================================================
(PID.TID 0000.0001) // Field hFacC at iteration          0
(PID.TID 0000.0001) // CMIN =          1.000000000000000E+00
(PID.TID 0000.0001) // CMAX =          1.000000000000000E+00
(PID.TID 0000.0001) // CINT =          0.000000000000000E+00
(PID.TID 0000.0001) // SYMBOLS (CMIN->CMAX): -abcdefghijklmnopqrstuvwxyz+
(PID.TID 0000.0001) //                  0.0: .
(PID.TID 0000.0001) // RANGE I (Lo:Hi:Step):(    -3:    36:     1)
(PID.TID 0000.0001) // RANGE J (Lo:Hi:Step):(    36:    -3:    -1)
(PID.TID 0000.0001) // RANGE K (Lo:Hi:Step):(   1:   1:   1)
(PID.TID 0000.0001) // =======================================================
(PID.TID 0000.0001) // =======================================================
(PID.TID 0000.0001) // END OF FIELD                                          =
(PID.TID 0000.0001) // =======================================================
(PID.TID 0000.0001) 
(PID.TID 0000.0001) // =======================================================
(PID.TID 0000.0001) // Field hFacW at iteration          0
(PID.TID 0000.0001) // CMIN =          1.000000000000000E+00
(PID.TID 0000.0001) // CMAX =          1.000000000000000E+00
(PID.TID 0000.0001) // CINT =          0.000000000000000E+00
(PID.TID 0000.0001) // SYMBOLS (CMIN->CMAX): -abcdefghijklmnopqrstuvwxyz+
(PID.TID 0000.0001) //                  0.0: .
(PID.TID 0000.0001) // RANGE I (Lo:Hi:Step):(    -3:    36:     1)
(PID.TID 0000.0001) // RANGE J (Lo:Hi:Step):(    36:    -3:    -1)
(PID.TID 0000.0001) // RANGE K (Lo:Hi:Step):(   1:   1:   1)
(PID.TID 0000.0001) // =======================================================
(PID.TID 0000.0001) // =======================================================
(PID.TID 0000.0001) // END OF FIELD                                          =
(PID.TID 0000.0001) // =======================================================
(PID.TID 0000.0001) 
(PID.TID 0000.0001) // =======================================================
(PID.TID 0000.0001) // Field hFacS at iteration          0
(PID.TID 0000.0001) // CMIN =          1.000000000000000E+00
(PID.TID 0000.0001) // CMAX =          1.000000000000000E+00
(PID.TID 0000.0001) // CINT =          0.000000000000000E+00
(PID.TID 0000.0001) // SYMBOLS (CMIN->CMAX): -abcdefghijklmnopqrstuvwxyz+
(PID.TID 0000.0001) //                  0.0: .
(PID.TID 0000.0001) // RANGE I (Lo:Hi:Step):(    -3:    36:     1)
(PID.TID 0000.0001) // RANGE J (Lo:Hi:Step):(    36:    -3:    -1)
(PID.TID 0000.0001) // RANGE K (Lo:Hi:Step):(   1:   1:   1)
(PID.TID 0000.0001) // =======================================================
(PID.TID 0000.0001) // =======================================================
(PID.TID 0000.0001) // END OF FIELD                                          =
(PID.TID 0000.0001) // =======================================================
(PID.TID 0000.0001) 
(PID.TID 0000.0001) GAD_INIT_FIXED: GAD_OlMinSize=  1  0  1
(PID.TID 0000.0001) 
(PID.TID 0000.0001) // ===================================
(PID.TID 0000.0001) // GAD parameters :
(PID.TID 0000.0001) // ===================================
(PID.TID 0000.0001) tempAdvScheme =   /* Temp. Horiz.Advection scheme selector */
(PID.TID 0000.0001)                       2
(PID.TID 0000.0001)     ;
(PID.TID 0000.0001) tempVertAdvScheme =   /* Temp. Vert. Advection scheme selector */
(PID.TID 0000.0001)                       2
(PID.TID 0000.0001)     ;
(PID.TID 0000.0001) tempMultiDimAdvec =   /* use Muti-Dim Advec method for Temp */
(PID.TID 0000.0001)                   F
(PID.TID 0000.0001)     ;
(PID.TID 0000.0001) tempSOM_Advection = /* use 2nd Order Moment Advection for Temp */
(PID.TID 0000.0001)                   F
(PID.TID 0000.0001)     ;
(PID.TID 0000.0001) AdamsBashforthGt = /* apply Adams-Bashforth extrapolation on Gt */
(PID.TID 0000.0001)                   T
(PID.TID 0000.0001)     ;
(PID.TID 0000.0001) AdamsBashforth_T = /* apply Adams-Bashforth extrapolation on Temp */
(PID.TID 0000.0001)                   F
(PID.TID 0000.0001)     ;
(PID.TID 0000.0001) saltAdvScheme =   /* Salt. Horiz.advection scheme selector */
(PID.TID 0000.0001)                       2
(PID.TID 0000.0001)     ;
(PID.TID 0000.0001) saltVertAdvScheme =   /* Salt. Vert. Advection scheme selector */
(PID.TID 0000.0001)                       2
(PID.TID 0000.0001)     ;
(PID.TID 0000.0001) saltMultiDimAdvec =   /* use Muti-Dim Advec method for Salt */
(PID.TID 0000.0001)                   F
(PID.TID 0000.0001)     ;
(PID.TID 0000.0001) saltSOM_Advection = /* use 2nd Order Moment Advection for Salt */
(PID.TID 0000.0001)                   F
(PID.TID 0000.0001)     ;
(PID.TID 0000.0001) AdamsBashforthGs = /* apply Adams-Bashforth extrapolation on Gs */
(PID.TID 0000.0001)                   T
(PID.TID 0000.0001)     ;
(PID.TID 0000.0001) AdamsBashforth_S = /* apply Adams-Bashforth extrapolation on Salt */
(PID.TID 0000.0001)                   F
(PID.TID 0000.0001)     ;
(PID.TID 0000.0001) // ===================================
(PID.TID 0000.0001) ------------------------------------------------------------
(PID.TID 0000.0001) DIAGNOSTICS_SET_LEVELS: done
(PID.TID 0000.0001)  Total Nb of available Diagnostics: ndiagt=   215
(PID.TID 0000.0001)  write list of available Diagnostics to file: available_diagnostics.log
(PID.TID 0000.0001) SETDIAG: Allocate  1 x  1 Levels for Diagnostic #    81 oceTAUX
(PID.TID 0000.0001) SETDIAG: Allocate  1 x  1 Levels for Diagnostic #    82 oceTAUY
(PID.TID 0000.0001) SETDIAG: Allocate  1 x  1 Levels for Diagnostic #    85 oceFWflx
(PID.TID 0000.0001) SETDIAG: Allocate  1 x  1 Levels for Diagnostic #    86 oceSflux
(PID.TID 0000.0001) SETDIAG: Allocate  1 x  1 Levels for Diagnostic #    87 oceQnet
(PID.TID 0000.0001) SETDIAG: Allocate  1 x  1 Levels for Diagnostic #    88 oceQsw
(PID.TID 0000.0001) SETDIAG: Allocate 15 x  1 Levels for Diagnostic #    27 SALT
(PID.TID 0000.0001) SETDIAG: Allocate 15 x  1 Levels for Diagnostic #    26 THETA
(PID.TID 0000.0001) SETDIAG: Allocate 15 x  1 Levels for Diagnostic #    45 UVELMASS
(PID.TID 0000.0001) SETDIAG: Allocate 15 x  1 Levels for Diagnostic #    46 VVELMASS
(PID.TID 0000.0001)   space allocated for all diagnostics:      66 levels
(PID.TID 0000.0001)   set mate pointer for diag #    81  oceTAUX  , Parms: UU      U1 , mate:    82
(PID.TID 0000.0001)   set mate pointer for diag #    82  oceTAUY  , Parms: VV      U1 , mate:    81
(PID.TID 0000.0001)   set mate pointer for diag #    45  UVELMASS , Parms: UUr     MR , mate:    46
(PID.TID 0000.0001)   set mate pointer for diag #    46  VVELMASS , Parms: VVr     MR , mate:    45
(PID.TID 0000.0001) DIAGNOSTICS_SET_POINTERS: Set levels for Outp.Stream: oceTAUX
(PID.TID 0000.0001)  Levels:       1.
(PID.TID 0000.0001) DIAGNOSTICS_SET_POINTERS: Set levels for Outp.Stream: oceTAUY
(PID.TID 0000.0001)  Levels:       1.
(PID.TID 0000.0001) DIAGNOSTICS_SET_POINTERS: Set levels for Outp.Stream: oceFWflx
(PID.TID 0000.0001)  Levels:       1.
(PID.TID 0000.0001) DIAGNOSTICS_SET_POINTERS: Set levels for Outp.Stream: oceSflux
(PID.TID 0000.0001)  Levels:       1.
(PID.TID 0000.0001) DIAGNOSTICS_SET_POINTERS: Set levels for Outp.Stream: oceQnet
(PID.TID 0000.0001)  Levels:       1.
(PID.TID 0000.0001) DIAGNOSTICS_SET_POINTERS: Set levels for Outp.Stream: oceQsw
(PID.TID 0000.0001)  Levels:       1.
(PID.TID 0000.0001) DIAGNOSTICS_SET_POINTERS: done
(PID.TID 0000.0001) ------------------------------------------------------------
(PID.TID 0000.0001) DIAGSTATS_SET_REGIONS: define   0 regions:
(PID.TID 0000.0001) ------------------------------------------------------------
(PID.TID 0000.0001)   space allocated for all stats-diags:       0 levels
(PID.TID 0000.0001) DIAGSTATS_SET_POINTERS: done
(PID.TID 0000.0001) ------------------------------------------------------------
(PID.TID 0000.0001) INI_GLOBAL_DOMAIN: Found  19 CS-corner Pts in the domain
(PID.TID 0000.0001) %MON fCori_max                    =   1.4574827780704E-04
(PID.TID 0000.0001) %MON fCori_min                    =  -1.4574827780704E-04
(PID.TID 0000.0001) %MON fCori_mean                   =   0.0000000000000E+00
(PID.TID 0000.0001) %MON fCori_sd                     =   8.4202189509968E-05
(PID.TID 0000.0001) %MON fCoriG_max                   =   1.4584247033981E-04
(PID.TID 0000.0001) %MON fCoriG_min                   =  -1.4584247033981E-04
(PID.TID 0000.0001) %MON fCoriG_mean                  =   2.2587545260115E-21
(PID.TID 0000.0001) %MON fCoriG_sd                    =   8.4202189509968E-05
(PID.TID 0000.0001) %MON fCoriCos_max                 =   1.4580166994612E-04
(PID.TID 0000.0001) %MON fCoriCos_min                 =   5.2407700865903E-06
(PID.TID 0000.0001) %MON fCoriCos_mean                =   1.1514045869113E-04
(PID.TID 0000.0001) %MON fCoriCos_sd                  =   3.0375849106513E-05
(PID.TID 0000.0001) INI_CG2D: CG2D normalisation factor =  1.9156564154949553E-04
(PID.TID 0000.0001) 
(PID.TID 0000.0001) // =======================================================
(PID.TID 0000.0001) // Model configuration
(PID.TID 0000.0001) // =======================================================
(PID.TID 0000.0001) //
(PID.TID 0000.0001) // "Physical" paramters ( PARM01 in namelist )
(PID.TID 0000.0001) //
(PID.TID 0000.0001) buoyancyRelation = /* Type of relation to get Buoyancy */
(PID.TID 0000.0001)               'OCEANIC'
(PID.TID 0000.0001)     ;
(PID.TID 0000.0001) fluidIsAir   =  /* fluid major constituent is Air */
(PID.TID 0000.0001)                   F
(PID.TID 0000.0001)     ;
(PID.TID 0000.0001) fluidIsWater =  /* fluid major constituent is Water */
(PID.TID 0000.0001)                   T
(PID.TID 0000.0001)     ;
(PID.TID 0000.0001) usingPCoords =  /* use p (or p*) vertical coordinate */
(PID.TID 0000.0001)                   F
(PID.TID 0000.0001)     ;
(PID.TID 0000.0001) usingZCoords =  /* use z (or z*) vertical coordinate */
(PID.TID 0000.0001)                   T
(PID.TID 0000.0001)     ;
(PID.TID 0000.0001) tRef =   /* Reference temperature profile ( oC or K ) */
(PID.TID 0000.0001)    15 @  2.000000000000000E+01              /* K =  1: 15 */
(PID.TID 0000.0001)     ;
(PID.TID 0000.0001) sRef =   /* Reference salinity profile ( psu ) */
(PID.TID 0000.0001)    15 @  3.500000000000000E+01              /* K =  1: 15 */
(PID.TID 0000.0001)     ;
(PID.TID 0000.0001) useStrainTensionVisc= /* Use StrainTension Form of Viscous Operator */
(PID.TID 0000.0001)                   F
(PID.TID 0000.0001)     ;
(PID.TID 0000.0001) useVariableVisc = /* Use variable horizontal viscosity */
(PID.TID 0000.0001)                   F
(PID.TID 0000.0001)     ;
(PID.TID 0000.0001) useHarmonicVisc = /* Use harmonic horizontal viscosity */
(PID.TID 0000.0001)                   T
(PID.TID 0000.0001)     ;
(PID.TID 0000.0001) useBiharmonicVisc= /* Use biharmonic horiz.  viscosity */
(PID.TID 0000.0001)                   F
(PID.TID 0000.0001)     ;
(PID.TID 0000.0001) useSmag3D = /* Use isotropic 3-D Smagorinsky viscosity */
(PID.TID 0000.0001)                   F
(PID.TID 0000.0001)     ;
(PID.TID 0000.0001) viscAh  =   /* Lateral harmonic viscosity ( m^2/s ) */
(PID.TID 0000.0001)                 3.000000000000000E+05
(PID.TID 0000.0001)     ;
(PID.TID 0000.0001) viscA4  =   /* Lateral biharmonic viscosity ( m^4/s ) */
(PID.TID 0000.0001)                 0.000000000000000E+00
(PID.TID 0000.0001)     ;
(PID.TID 0000.0001) no_slip_sides =  /* Viscous BCs: No-slip sides */
(PID.TID 0000.0001)                   T
(PID.TID 0000.0001)     ;
(PID.TID 0000.0001) sideDragFactor = /* side-drag scaling factor (non-dim) */
(PID.TID 0000.0001)                 2.000000000000000E+00
(PID.TID 0000.0001)     ;
(PID.TID 0000.0001) viscArNr = /* vertical profile of vertical viscosity ( m^2/s )*/
(PID.TID 0000.0001)    15 @  1.000000000000000E-03              /* K =  1: 15 */
(PID.TID 0000.0001)     ;
(PID.TID 0000.0001) no_slip_bottom =  /* Viscous BCs: No-slip bottom */
(PID.TID 0000.0001)                   T
(PID.TID 0000.0001)     ;
(PID.TID 0000.0001) bottomVisc_pCell = /* Partial-cell in bottom Visc. BC */
(PID.TID 0000.0001)                   F
(PID.TID 0000.0001)     ;
(PID.TID 0000.0001) bottomDragLinear = /* linear bottom-drag coefficient ( m/s ) */
(PID.TID 0000.0001)                 0.000000000000000E+00
(PID.TID 0000.0001)     ;
(PID.TID 0000.0001) bottomDragQuadratic = /* quadratic bottom-drag coefficient (-) */
(PID.TID 0000.0001)                 0.000000000000000E+00
(PID.TID 0000.0001)     ;
(PID.TID 0000.0001) selectBotDragQuadr = /* select quadratic bottom drag options */
(PID.TID 0000.0001)                      -1
(PID.TID 0000.0001)     ;
(PID.TID 0000.0001) diffKhT =   /* Laplacian diffusion of heat laterally ( m^2/s ) */
(PID.TID 0000.0001)                 0.000000000000000E+00
(PID.TID 0000.0001)     ;
(PID.TID 0000.0001) diffK4T =   /* Biharmonic diffusion of heat laterally ( m^4/s ) */
(PID.TID 0000.0001)                 0.000000000000000E+00
(PID.TID 0000.0001)     ;
(PID.TID 0000.0001) diffKhS =   /* Laplacian diffusion of salt laterally ( m^2/s ) */
(PID.TID 0000.0001)                 0.000000000000000E+00
(PID.TID 0000.0001)     ;
(PID.TID 0000.0001) diffK4S =   /* Biharmonic diffusion of salt laterally ( m^4/s ) */
(PID.TID 0000.0001)                 0.000000000000000E+00
(PID.TID 0000.0001)     ;
(PID.TID 0000.0001) diffKrNrT = /* vertical profile of vertical diffusion of Temp ( m^2/s )*/
(PID.TID 0000.0001)    15 @  3.000000000000000E-05              /* K =  1: 15 */
(PID.TID 0000.0001)     ;
(PID.TID 0000.0001) diffKrNrS = /* vertical profile of vertical diffusion of Salt ( m^2/s )*/
(PID.TID 0000.0001)    15 @  3.000000000000000E-05              /* K =  1: 15 */
(PID.TID 0000.0001)     ;
(PID.TID 0000.0001) diffKrBL79surf = /* Surface diffusion for Bryan and Lewis 79 ( m^2/s ) */
(PID.TID 0000.0001)                 0.000000000000000E+00
(PID.TID 0000.0001)     ;
(PID.TID 0000.0001) diffKrBL79deep = /* Deep diffusion for Bryan and Lewis 1979 ( m^2/s ) */
(PID.TID 0000.0001)                 0.000000000000000E+00
(PID.TID 0000.0001)     ;
(PID.TID 0000.0001) diffKrBL79scl = /* Depth scale for Bryan and Lewis 1979 ( m ) */
(PID.TID 0000.0001)                 2.000000000000000E+02
(PID.TID 0000.0001)     ;
(PID.TID 0000.0001) diffKrBL79Ho = /* Turning depth for Bryan and Lewis 1979 ( m ) */
(PID.TID 0000.0001)                -2.000000000000000E+03
(PID.TID 0000.0001)     ;
(PID.TID 0000.0001) ivdc_kappa = /* Implicit Vertical Diffusivity for Convection ( m^2/s) */
(PID.TID 0000.0001)                 1.000000000000000E+01
(PID.TID 0000.0001)     ;
(PID.TID 0000.0001) hMixCriteria=  /* Criteria for mixed-layer diagnostic */
(PID.TID 0000.0001)                -8.000000000000000E-01
(PID.TID 0000.0001)     ;
(PID.TID 0000.0001) dRhoSmall =  /* Parameter for mixed-layer diagnostic */
(PID.TID 0000.0001)                 1.000000000000000E-06
(PID.TID 0000.0001)     ;
(PID.TID 0000.0001) hMixSmooth=  /* Smoothing parameter for mixed-layer diagnostic */
(PID.TID 0000.0001)                 0.000000000000000E+00
(PID.TID 0000.0001)     ;
(PID.TID 0000.0001) eosType =  /* Type of Equation of State */
(PID.TID 0000.0001)               'JMD95Z'
(PID.TID 0000.0001)     ;
(PID.TID 0000.0001) selectP_inEOS_Zc = /* select pressure to use in EOS (0,1,2,3) */
(PID.TID 0000.0001)                       0
(PID.TID 0000.0001)     0= -g*rhoConst*z ; 1= pRef (from tRef,sRef); 2= Hyd P ; 3= Hyd+NH P
(PID.TID 0000.0001)     ;
(PID.TID 0000.0001) HeatCapacity_Cp =  /* Specific heat capacity ( J/kg/K ) */
(PID.TID 0000.0001)                 3.994000000000000E+03
(PID.TID 0000.0001)     ;
(PID.TID 0000.0001) celsius2K = /* 0 degree Celsius converted to Kelvin ( K ) */
(PID.TID 0000.0001)                 2.731500000000000E+02
(PID.TID 0000.0001)     ;
(PID.TID 0000.0001) rhoConst  = /* Reference density (Boussinesq)  ( kg/m^3 ) */
(PID.TID 0000.0001)                 1.035000000000000E+03
(PID.TID 0000.0001)     ;
(PID.TID 0000.0001) rhoFacC = /* normalized Reference density @ cell-Center (-) */
(PID.TID 0000.0001)    15 @  1.000000000000000E+00              /* K =  1: 15 */
(PID.TID 0000.0001)     ;
(PID.TID 0000.0001) rhoFacF = /* normalized Reference density @ W-Interface (-) */
(PID.TID 0000.0001)    16 @  1.000000000000000E+00              /* K =  1: 16 */
(PID.TID 0000.0001)     ;
(PID.TID 0000.0001) rhoConstFresh = /* Fresh-water reference density ( kg/m^3 ) */
(PID.TID 0000.0001)                 1.000000000000000E+03
(PID.TID 0000.0001)     ;
(PID.TID 0000.0001) gravity =   /* Gravitational acceleration ( m/s^2 ) */
(PID.TID 0000.0001)                 9.810000000000000E+00
(PID.TID 0000.0001)     ;
(PID.TID 0000.0001) gBaro =   /* Barotropic gravity ( m/s^2 ) */
(PID.TID 0000.0001)                 9.810000000000000E+00
(PID.TID 0000.0001)     ;
(PID.TID 0000.0001) gravFacC = /* gravity factor (vs surf.) @ cell-Center (-) */
(PID.TID 0000.0001)    15 @  1.000000000000000E+00              /* K =  1: 15 */
(PID.TID 0000.0001)     ;
(PID.TID 0000.0001) gravFacF = /* gravity factor (vs surf.) @ W-Interface (-) */
(PID.TID 0000.0001)    16 @  1.000000000000000E+00              /* K =  1: 16 */
(PID.TID 0000.0001)     ;
(PID.TID 0000.0001) rotationPeriod =   /* Rotation Period ( s ) */
(PID.TID 0000.0001)                 8.616400000000000E+04
(PID.TID 0000.0001)     ;
(PID.TID 0000.0001) omega =   /* Angular velocity ( rad/s ) */
(PID.TID 0000.0001)                 7.292123516990375E-05
(PID.TID 0000.0001)     ;
(PID.TID 0000.0001) f0 =   /* Reference coriolis parameter ( 1/s ) */
(PID.TID 0000.0001)                 1.000000000000000E-04
(PID.TID 0000.0001)     ;
(PID.TID 0000.0001) beta =   /* Beta ( 1/(m.s) ) */
(PID.TID 0000.0001)                 9.999999999999999E-12
(PID.TID 0000.0001)     ;
(PID.TID 0000.0001) fPrime =   /* Second coriolis parameter ( 1/s ) */
(PID.TID 0000.0001)                 0.000000000000000E+00
(PID.TID 0000.0001)     ;
(PID.TID 0000.0001) rigidLid =   /* Rigid lid on/off flag */
(PID.TID 0000.0001)                   F
(PID.TID 0000.0001)     ;
(PID.TID 0000.0001) implicitFreeSurface =   /* Implicit free surface on/off flag */
(PID.TID 0000.0001)                   T
(PID.TID 0000.0001)     ;
(PID.TID 0000.0001) freeSurfFac =   /* Implicit free surface factor */
(PID.TID 0000.0001)                 1.000000000000000E+00
(PID.TID 0000.0001)     ;
(PID.TID 0000.0001) implicSurfPress =  /* Surface Pressure implicit factor (0-1)*/
(PID.TID 0000.0001)                 1.000000000000000E+00
(PID.TID 0000.0001)     ;
(PID.TID 0000.0001) implicDiv2DFlow =  /* Barot. Flow Div. implicit factor (0-1)*/
(PID.TID 0000.0001)                 1.000000000000000E+00
(PID.TID 0000.0001)     ;
(PID.TID 0000.0001) uniformLin_PhiSurf = /* use uniform Bo_surf on/off flag*/
(PID.TID 0000.0001)                   T
(PID.TID 0000.0001)     ;
(PID.TID 0000.0001) uniformFreeSurfLev = /* free-surface level-index is uniform */
(PID.TID 0000.0001)                   T
(PID.TID 0000.0001)     ;
(PID.TID 0000.0001) hFacMin =   /* minimum partial cell factor (hFac) */
(PID.TID 0000.0001)                 1.000000000000000E-01
(PID.TID 0000.0001)     ;
(PID.TID 0000.0001) hFacMinDr = /* minimum partial cell thickness ( m) */
(PID.TID 0000.0001)                 2.000000000000000E+01
(PID.TID 0000.0001)     ;
(PID.TID 0000.0001) exactConserv =  /* Exact Volume Conservation on/off flag*/
(PID.TID 0000.0001)                   T
(PID.TID 0000.0001)     ;
(PID.TID 0000.0001) linFSConserveTr = /* Tracer correction for Lin Free Surface on/off flag*/
(PID.TID 0000.0001)                   F
(PID.TID 0000.0001)     ;
(PID.TID 0000.0001) nonlinFreeSurf = /* Non-linear Free Surf. options (-1,0,1,2,3)*/
(PID.TID 0000.0001)                       4
(PID.TID 0000.0001)      -1,0= Off ; 1,2,3= On, 2=+rescale gU,gV, 3=+update cg2d solv.
(PID.TID 0000.0001)     ;
(PID.TID 0000.0001) hFacInf =   /* lower threshold for hFac (nonlinFreeSurf only)*/
(PID.TID 0000.0001)                 2.000000000000000E-01
(PID.TID 0000.0001)     ;
(PID.TID 0000.0001) hFacSup =   /* upper threshold for hFac (nonlinFreeSurf only)*/
(PID.TID 0000.0001)                 2.000000000000000E+00
(PID.TID 0000.0001)     ;
(PID.TID 0000.0001) select_rStar = /* r* Vertical coord. options (=0 r coord.; >0 uses r*)*/
(PID.TID 0000.0001)                       2
(PID.TID 0000.0001)     ;
(PID.TID 0000.0001) useRealFreshWaterFlux = /* Real Fresh Water Flux on/off flag*/
(PID.TID 0000.0001)                   T
(PID.TID 0000.0001)     ;
(PID.TID 0000.0001) temp_EvPrRn = /* Temp. of Evap/Prec/R (UNSET=use local T)(oC)*/
(PID.TID 0000.0001)                 1.234567000000000E+05
(PID.TID 0000.0001)     ;
(PID.TID 0000.0001) salt_EvPrRn = /* Salin. of Evap/Prec/R (UNSET=use local S)(psu)*/
(PID.TID 0000.0001)                 0.000000000000000E+00
(PID.TID 0000.0001)     ;
(PID.TID 0000.0001) selectAddFluid = /* option for mass source/sink of fluid (=0: off) */
(PID.TID 0000.0001)                       0
(PID.TID 0000.0001)     ;
(PID.TID 0000.0001) temp_addMass = /* Temp. of addMass array (UNSET=use local T)(oC)*/
(PID.TID 0000.0001)                 1.234567000000000E+05
(PID.TID 0000.0001)     ;
(PID.TID 0000.0001) salt_addMass = /* Salin. of addMass array (UNSET=use local S)(psu)*/
(PID.TID 0000.0001)                 0.000000000000000E+00
(PID.TID 0000.0001)     ;
(PID.TID 0000.0001) use3Dsolver = /* use 3-D pressure solver on/off flag */
(PID.TID 0000.0001)                   F
(PID.TID 0000.0001)     ;
(PID.TID 0000.0001) nonHydrostatic =  /* Non-Hydrostatic on/off flag */
(PID.TID 0000.0001)                   F
(PID.TID 0000.0001)     ;
(PID.TID 0000.0001) nh_Am2 = /* Non-Hydrostatic terms scaling factor */
(PID.TID 0000.0001)                 1.000000000000000E+00
(PID.TID 0000.0001)     ;
(PID.TID 0000.0001) implicitNHPress = /* Non-Hyd Pressure implicit factor (0-1)*/
(PID.TID 0000.0001)                 1.000000000000000E+00
(PID.TID 0000.0001)     ;
(PID.TID 0000.0001) selectNHfreeSurf = /* Non-Hyd (free-)Surface option */
(PID.TID 0000.0001)                       0
(PID.TID 0000.0001)     ;
(PID.TID 0000.0001) quasiHydrostatic = /* Quasi-Hydrostatic on/off flag */
(PID.TID 0000.0001)                   F
(PID.TID 0000.0001)     ;
(PID.TID 0000.0001) calc_wVelocity = /* vertical velocity calculation on/off flag */
(PID.TID 0000.0001)                   T
(PID.TID 0000.0001)     ;
(PID.TID 0000.0001) momStepping =  /* Momentum equation on/off flag */
(PID.TID 0000.0001)                   T
(PID.TID 0000.0001)     ;
(PID.TID 0000.0001) vectorInvariantMomentum= /* Vector-Invariant Momentum on/off */
(PID.TID 0000.0001)                   T
(PID.TID 0000.0001)     ;
(PID.TID 0000.0001) momAdvection =  /* Momentum advection on/off flag */
(PID.TID 0000.0001)                   T
(PID.TID 0000.0001)     ;
(PID.TID 0000.0001) momViscosity =  /* Momentum viscosity on/off flag */
(PID.TID 0000.0001)                   T
(PID.TID 0000.0001)     ;
(PID.TID 0000.0001) momImplVertAdv= /* Momentum implicit vert. advection on/off*/
(PID.TID 0000.0001)                   F
(PID.TID 0000.0001)     ;
(PID.TID 0000.0001) implicitViscosity = /* Implicit viscosity on/off flag */
(PID.TID 0000.0001)                   F
(PID.TID 0000.0001)     ;
(PID.TID 0000.0001) selectImplicitDrag= /* Implicit bot Drag options (0,1,2)*/
(PID.TID 0000.0001)                       0
(PID.TID 0000.0001)     0= Expl. ; 1= Impl. on provis. Vel ; 2= Fully Impl (with surf.P)
(PID.TID 0000.0001)     ;
(PID.TID 0000.0001) metricTerms =  /* metric-Terms on/off flag */
(PID.TID 0000.0001)                   F
(PID.TID 0000.0001)     ;
(PID.TID 0000.0001) useNHMTerms = /* Non-Hydrostatic Metric-Terms on/off */
(PID.TID 0000.0001)                   F
(PID.TID 0000.0001)     ;
(PID.TID 0000.0001) selectCoriMap = /* Coriolis Map options (0,1,2,3)*/
(PID.TID 0000.0001)                       2
(PID.TID 0000.0001)     0= f-Plane ; 1= Beta-Plane ; 2= Spherical ; 3= read from file
(PID.TID 0000.0001)     ;
(PID.TID 0000.0001) use3dCoriolis = /* 3-D Coriolis on/off flag */
(PID.TID 0000.0001)                   F
(PID.TID 0000.0001)     ;
(PID.TID 0000.0001) useCoriolis =  /* Coriolis on/off flag */
(PID.TID 0000.0001)                   T
(PID.TID 0000.0001)     ;
(PID.TID 0000.0001) useCDscheme =  /* CD scheme on/off flag */
(PID.TID 0000.0001)                   F
(PID.TID 0000.0001)     ;
(PID.TID 0000.0001) useEnergyConservingCoriolis= /* Flx-Form Coriolis scheme flag */
(PID.TID 0000.0001)                   F
(PID.TID 0000.0001)     ;
(PID.TID 0000.0001) useJamartWetPoints= /* Coriolis WetPoints method flag */
(PID.TID 0000.0001)                   F
(PID.TID 0000.0001)     ;
(PID.TID 0000.0001) useJamartMomAdv= /* V.I Non-linear terms Jamart flag */
(PID.TID 0000.0001)                   F
(PID.TID 0000.0001)     ;
(PID.TID 0000.0001) useAbsVorticity= /* V.I Works with f+zeta in Coriolis */
(PID.TID 0000.0001)                   F
(PID.TID 0000.0001)     ;
(PID.TID 0000.0001) selectVortScheme= /* V.I Scheme selector for Vorticity-Term */
(PID.TID 0000.0001)                       1
(PID.TID 0000.0001)    = 0 : enstrophy (Shallow-Water Eq.) conserving scheme by Sadourny, JAS 75
(PID.TID 0000.0001)    = 1 : same as 0 with modified hFac
(PID.TID 0000.0001)    = 2 : energy conserving scheme (used by Sadourny in JAS 75 paper)
(PID.TID 0000.0001)    = 3 : energy (general) and enstrophy (2D, nonDiv.) conserving scheme
(PID.TID 0000.0001)          from Sadourny (Burridge & Haseler, ECMWF Rep.4, 1977)
(PID.TID 0000.0001)     ;
(PID.TID 0000.0001) upwindVorticity= /* V.I Upwind bias vorticity flag */
(PID.TID 0000.0001)                   F
(PID.TID 0000.0001)     ;
(PID.TID 0000.0001) highOrderVorticity= /* V.I High order vort. advect. flag */
(PID.TID 0000.0001)                   F
(PID.TID 0000.0001)     ;
(PID.TID 0000.0001) upwindShear= /* V.I Upwind vertical Shear advection flag */
(PID.TID 0000.0001)                   F
(PID.TID 0000.0001)     ;
(PID.TID 0000.0001) selectKEscheme= /* V.I Kinetic Energy scheme selector */
(PID.TID 0000.0001)                       0
(PID.TID 0000.0001)     ;
(PID.TID 0000.0001) momForcing =  /* Momentum forcing on/off flag */
(PID.TID 0000.0001)                   T
(PID.TID 0000.0001)     ;
(PID.TID 0000.0001) momTidalForcing = /* Momentum Tidal forcing on/off flag */
(PID.TID 0000.0001)                   T
(PID.TID 0000.0001)     ;
(PID.TID 0000.0001) momPressureForcing =  /* Momentum pressure term on/off flag */
(PID.TID 0000.0001)                   T
(PID.TID 0000.0001)     ;
(PID.TID 0000.0001) implicitIntGravWave= /* Implicit Internal Gravity Wave flag */
(PID.TID 0000.0001)                   F
(PID.TID 0000.0001)     ;
(PID.TID 0000.0001) staggerTimeStep =    /* Stagger time stepping on/off flag */
(PID.TID 0000.0001)                   T
(PID.TID 0000.0001)     ;
(PID.TID 0000.0001) doResetHFactors = /* reset thickness factors @ each time-step */
(PID.TID 0000.0001)                   F
(PID.TID 0000.0001)     ;
(PID.TID 0000.0001) multiDimAdvection =  /* enable/disable Multi-Dim Advection */
(PID.TID 0000.0001)                   T
(PID.TID 0000.0001)     ;
(PID.TID 0000.0001) useMultiDimAdvec =   /* Multi-Dim Advection is/is-not used */
(PID.TID 0000.0001)                   F
(PID.TID 0000.0001)     ;
(PID.TID 0000.0001) implicitDiffusion = /* Implicit Diffusion on/off flag */
(PID.TID 0000.0001)                   T
(PID.TID 0000.0001)     ;
(PID.TID 0000.0001) tempStepping =  /* Temperature equation on/off flag */
(PID.TID 0000.0001)                   T
(PID.TID 0000.0001)     ;
(PID.TID 0000.0001) tempAdvection = /* Temperature advection on/off flag */
(PID.TID 0000.0001)                   T
(PID.TID 0000.0001)     ;
(PID.TID 0000.0001) tempImplVertAdv = /* Temp. implicit vert. advection on/off */
(PID.TID 0000.0001)                   F
(PID.TID 0000.0001)     ;
(PID.TID 0000.0001) tempForcing  =  /* Temperature forcing on/off flag */
(PID.TID 0000.0001)                   T
(PID.TID 0000.0001)     ;
(PID.TID 0000.0001) balanceQnet  =  /* balance net heat-flux on/off flag */
(PID.TID 0000.0001)                   F
(PID.TID 0000.0001)     ;
(PID.TID 0000.0001) doThetaClimRelax = /* apply SST relaxation on/off flag */
(PID.TID 0000.0001)                   F
(PID.TID 0000.0001)     ;
(PID.TID 0000.0001) balanceThetaClimRelax= /* balance SST relaxation on/off flag */
(PID.TID 0000.0001)                   F
(PID.TID 0000.0001)     ;
(PID.TID 0000.0001) tempIsActiveTr = /* Temp. is a dynamically Active Tracer */
(PID.TID 0000.0001)                   T
(PID.TID 0000.0001)     ;
(PID.TID 0000.0001) saltStepping =  /* Salinity equation on/off flag */
(PID.TID 0000.0001)                   T
(PID.TID 0000.0001)     ;
(PID.TID 0000.0001) saltAdvection = /* Salinity advection on/off flag */
(PID.TID 0000.0001)                   T
(PID.TID 0000.0001)     ;
(PID.TID 0000.0001) saltImplVertAdv = /* Sali. implicit vert. advection on/off */
(PID.TID 0000.0001)                   F
(PID.TID 0000.0001)     ;
(PID.TID 0000.0001) saltForcing  =  /* Salinity forcing on/off flag */
(PID.TID 0000.0001)                   T
(PID.TID 0000.0001)     ;
(PID.TID 0000.0001) balanceEmPmR =  /* balance net fresh-water flux on/off flag */
(PID.TID 0000.0001)                   F
(PID.TID 0000.0001)     ;
(PID.TID 0000.0001) doSaltClimRelax = /* apply SSS relaxation on/off flag */
(PID.TID 0000.0001)                   F
(PID.TID 0000.0001)     ;
(PID.TID 0000.0001) balanceSaltClimRelax= /* balance SSS relaxation on/off flag */
(PID.TID 0000.0001)                   F
(PID.TID 0000.0001)     ;
(PID.TID 0000.0001) saltIsActiveTr = /* Salt  is a dynamically Active Tracer */
(PID.TID 0000.0001)                   T
(PID.TID 0000.0001)     ;
(PID.TID 0000.0001)  readBinaryPrec = /* Precision used for reading binary files */
(PID.TID 0000.0001)                      64
(PID.TID 0000.0001)     ;
(PID.TID 0000.0001) writeBinaryPrec = /* Precision used for writing binary files */
(PID.TID 0000.0001)                      32
(PID.TID 0000.0001)     ;
(PID.TID 0000.0001)  rwSuffixType =   /* select format of mds file suffix */
(PID.TID 0000.0001)                       0
(PID.TID 0000.0001)    = 0 : myIter (I10.10) ;   = 1 : 100*myTime (100th sec) ;
(PID.TID 0000.0001)    = 2 : myTime (seconds);   = 3 : myTime/360 (10th of hr);
(PID.TID 0000.0001)    = 4 : myTime/3600 (hours)
(PID.TID 0000.0001)     ;
(PID.TID 0000.0001)  globalFiles = /* write "global" (=not per tile) files */
(PID.TID 0000.0001)                   F
(PID.TID 0000.0001)     ;
(PID.TID 0000.0001)  useSingleCpuIO = /* only master MPI process does I/O */
(PID.TID 0000.0001)                   T
(PID.TID 0000.0001)     ;
(PID.TID 0000.0001)  useSingleCpuInput = /* only master process reads input */
(PID.TID 0000.0001)                   T
(PID.TID 0000.0001)     ;
(PID.TID 0000.0001) /* debLev[*]  : level of debug & auxiliary message printing */
(PID.TID 0000.0001) debLevZero =  0 ; /* level of disabled aux. msg printing */
(PID.TID 0000.0001)    debLevA =  1 ; /* level of minimum  aux. msg printing */
(PID.TID 0000.0001)    debLevB =  2 ; /* level of low aux. print (report read-file opening)*/
(PID.TID 0000.0001)    debLevC =  3 ; /* level of moderate debug prt (most pkgs debug msg) */
(PID.TID 0000.0001)    debLevD =  4 ; /* level of enhanced debug prt (add DEBUG_STATS prt) */
(PID.TID 0000.0001)    debLevE =  5 ; /* level of extensive debug printing */
(PID.TID 0000.0001) debugLevel =  /* select debug printing level */
(PID.TID 0000.0001)                       2
(PID.TID 0000.0001)     ;
(PID.TID 0000.0001)  plotLevel =  /* select PLOT_FIELD printing level */
(PID.TID 0000.0001)                       2
(PID.TID 0000.0001)     ;
(PID.TID 0000.0001) //
(PID.TID 0000.0001) // Elliptic solver(s) paramters ( PARM02 in namelist )
(PID.TID 0000.0001) //
(PID.TID 0000.0001) cg2dMaxIters =   /* Upper limit on 2d con. grad iterations  */
(PID.TID 0000.0001)                     150
(PID.TID 0000.0001)     ;
(PID.TID 0000.0001) cg2dChkResFreq =   /* 2d con. grad convergence test frequency */
(PID.TID 0000.0001)                       1
(PID.TID 0000.0001)     ;
(PID.TID 0000.0001) cg2dUseMinResSol= /* use cg2d last-iter(=0) / min-resid.(=1) solution */
(PID.TID 0000.0001)                       0
(PID.TID 0000.0001)     ;
(PID.TID 0000.0001) cg2dTargetResidual =   /* 2d con. grad target residual  */
(PID.TID 0000.0001)                 1.000000000000000E-07
(PID.TID 0000.0001)     ;
(PID.TID 0000.0001) cg2dTargetResWunit =   /* CG2d target residual [W units] */
(PID.TID 0000.0001)                -1.000000000000000E+00
(PID.TID 0000.0001)     ;
(PID.TID 0000.0001) cg2dPreCondFreq =   /* Freq. for updating cg2d preconditioner */
(PID.TID 0000.0001)                       1
(PID.TID 0000.0001)     ;
(PID.TID 0000.0001) useSRCGSolver =  /* use single reduction CG solver(s) */
(PID.TID 0000.0001)                   F
(PID.TID 0000.0001)     ;
(PID.TID 0000.0001) printResidualFreq = /* Freq. for printing CG residual */
(PID.TID 0000.0001)                       0
(PID.TID 0000.0001)     ;
(PID.TID 0000.0001) //
(PID.TID 0000.0001) // Time stepping paramters ( PARM03 in namelist )
(PID.TID 0000.0001) //
(PID.TID 0000.0001) deltaTMom =   /* Momentum equation timestep ( s ) */
(PID.TID 0000.0001)                 9.000000000000000E+02
(PID.TID 0000.0001)     ;
(PID.TID 0000.0001) deltaTFreeSurf = /* FreeSurface equation timestep ( s ) */
(PID.TID 0000.0001)                 9.000000000000000E+02
(PID.TID 0000.0001)     ;
(PID.TID 0000.0001) dTtracerLev =  /* Tracer equation timestep ( s ) */
(PID.TID 0000.0001)    15 @  9.000000000000000E+02              /* K =  1: 15 */
(PID.TID 0000.0001)     ;
(PID.TID 0000.0001) deltaTClock  =   /* Model clock timestep ( s ) */
(PID.TID 0000.0001)                 9.000000000000000E+02
(PID.TID 0000.0001)     ;
(PID.TID 0000.0001) cAdjFreq =   /* Convective adjustment interval ( s ) */
(PID.TID 0000.0001)                 0.000000000000000E+00
(PID.TID 0000.0001)     ;
(PID.TID 0000.0001) momForcingOutAB = /* =1: take Momentum Forcing out of Adams-Bash. stepping */
(PID.TID 0000.0001)                       0
(PID.TID 0000.0001)     ;
(PID.TID 0000.0001) tracForcingOutAB = /* =1: take T,S,pTr Forcing out of Adams-Bash. stepping */
(PID.TID 0000.0001)                       1
(PID.TID 0000.0001)     ;
(PID.TID 0000.0001) momDissip_In_AB = /* put Dissipation Tendency in Adams-Bash. stepping */
(PID.TID 0000.0001)                   T
(PID.TID 0000.0001)     ;
(PID.TID 0000.0001) doAB_onGtGs = /* apply AB on Tendencies (rather than on T,S)*/
(PID.TID 0000.0001)                   T
(PID.TID 0000.0001)     ;
(PID.TID 0000.0001) abEps =   /* Adams-Bashforth-2 stabilizing weight */
(PID.TID 0000.0001)                 1.000000000000000E-01
(PID.TID 0000.0001)     ;
(PID.TID 0000.0001) applyExchUV_early = /* Apply EXCH to U,V earlier in time-step */
(PID.TID 0000.0001)                   F
(PID.TID 0000.0001)     ;
(PID.TID 0000.0001) pickupStrictlyMatch= /* stop if pickup do not strictly match */
(PID.TID 0000.0001)                   T
(PID.TID 0000.0001)     ;
(PID.TID 0000.0001) nIter0   =   /* Run starting timestep number */
(PID.TID 0000.0001)                   72000
(PID.TID 0000.0001)     ;
(PID.TID 0000.0001) nTimeSteps = /* Number of timesteps */
(PID.TID 0000.0001)                      96
(PID.TID 0000.0001)     ;
(PID.TID 0000.0001) nEndIter =   /* Run ending timestep number */
(PID.TID 0000.0001)                   72096
(PID.TID 0000.0001)     ;
(PID.TID 0000.0001) baseTime =   /* Model base time ( s ) */
(PID.TID 0000.0001)                 0.000000000000000E+00
(PID.TID 0000.0001)     ;
(PID.TID 0000.0001) startTime =  /* Run start time ( s ) */
(PID.TID 0000.0001)                 6.480000000000000E+07
(PID.TID 0000.0001)     ;
(PID.TID 0000.0001) endTime  =   /* Integration ending time ( s ) */
(PID.TID 0000.0001)                 6.488640000000000E+07
(PID.TID 0000.0001)     ;
(PID.TID 0000.0001) pChkPtFreq = /* Permanent restart/pickup file interval ( s ) */
(PID.TID 0000.0001)                 0.000000000000000E+00
(PID.TID 0000.0001)     ;
(PID.TID 0000.0001) chkPtFreq  = /* Rolling restart/pickup file interval ( s ) */
(PID.TID 0000.0001)                 0.000000000000000E+00
(PID.TID 0000.0001)     ;
(PID.TID 0000.0001) pickup_write_mdsio =   /* Model IO flag. */
(PID.TID 0000.0001)                   T
(PID.TID 0000.0001)     ;
(PID.TID 0000.0001) pickup_read_mdsio =   /* Model IO flag. */
(PID.TID 0000.0001)                   T
(PID.TID 0000.0001)     ;
(PID.TID 0000.0001) writePickupAtEnd =   /* Model IO flag. */
(PID.TID 0000.0001)                   T
(PID.TID 0000.0001)     ;
(PID.TID 0000.0001) dumpFreq =   /* Model state write out interval ( s ). */
(PID.TID 0000.0001)                 0.000000000000000E+00
(PID.TID 0000.0001)     ;
(PID.TID 0000.0001) dumpInitAndLast= /* write out Initial & Last iter. model state */
(PID.TID 0000.0001)                   T
(PID.TID 0000.0001)     ;
(PID.TID 0000.0001) snapshot_mdsio =   /* Model IO flag. */
(PID.TID 0000.0001)                   T
(PID.TID 0000.0001)     ;
(PID.TID 0000.0001) monitorFreq =   /* Monitor output interval ( s ). */
(PID.TID 0000.0001)                 1.000000000000000E+00
(PID.TID 0000.0001)     ;
(PID.TID 0000.0001) monitorSelect = /* select group of variables to monitor */
(PID.TID 0000.0001)                       3
(PID.TID 0000.0001)     ;
(PID.TID 0000.0001) monitor_stdio =   /* Model IO flag. */
(PID.TID 0000.0001)                   T
(PID.TID 0000.0001)     ;
(PID.TID 0000.0001) externForcingPeriod =   /* forcing period (s) */
(PID.TID 0000.0001)                 0.000000000000000E+00
(PID.TID 0000.0001)     ;
(PID.TID 0000.0001) externForcingCycle =   /* period of the cyle (s). */
(PID.TID 0000.0001)                 0.000000000000000E+00
(PID.TID 0000.0001)     ;
(PID.TID 0000.0001) tauThetaClimRelax =   /* relaxation time scale (s) */
(PID.TID 0000.0001)                 0.000000000000000E+00
(PID.TID 0000.0001)     ;
(PID.TID 0000.0001) tauSaltClimRelax =   /* relaxation time scale (s) */
(PID.TID 0000.0001)                 0.000000000000000E+00
(PID.TID 0000.0001)     ;
(PID.TID 0000.0001) latBandClimRelax =   /* max. Lat. where relaxation */
(PID.TID 0000.0001)                 1.800000000000000E+02
(PID.TID 0000.0001)     ;
(PID.TID 0000.0001) //
(PID.TID 0000.0001) // Gridding paramters ( PARM04 in namelist )
(PID.TID 0000.0001) //
(PID.TID 0000.0001) usingCartesianGrid = /* Cartesian coordinates flag ( True/False ) */
(PID.TID 0000.0001)                   F
(PID.TID 0000.0001)     ;
(PID.TID 0000.0001) usingCylindricalGrid = /* Cylindrical coordinates flag ( True/False ) */
(PID.TID 0000.0001)                   F
(PID.TID 0000.0001)     ;
(PID.TID 0000.0001) usingSphericalPolarGrid = /* Spherical coordinates flag ( True/False ) */
(PID.TID 0000.0001)                   F
(PID.TID 0000.0001)     ;
(PID.TID 0000.0001) usingCurvilinearGrid = /* Curvilinear coordinates flag ( True/False ) */
(PID.TID 0000.0001)                   T
(PID.TID 0000.0001)     ;
(PID.TID 0000.0001) useMin4hFacEdges = /* set hFacW,S as minimum of adjacent hFacC factor */
(PID.TID 0000.0001)                   F
(PID.TID 0000.0001)     ;
(PID.TID 0000.0001) interViscAr_pCell = /* account for partial-cell in interior vert. viscosity */
(PID.TID 0000.0001)                   F
(PID.TID 0000.0001)     ;
(PID.TID 0000.0001) interDiffKr_pCell = /* account for partial-cell in interior vert. diffusion */
(PID.TID 0000.0001)                   F
(PID.TID 0000.0001)     ;
(PID.TID 0000.0001) pCellMix_select = /* option to enhance mixing near surface & bottom */
(PID.TID 0000.0001)                       0
(PID.TID 0000.0001)     ;
(PID.TID 0000.0001) selectSigmaCoord = /* Hybrid-Sigma Vert. Coordinate option */
(PID.TID 0000.0001)                       0
(PID.TID 0000.0001)     ;
(PID.TID 0000.0001) rSigmaBnd = /* r/sigma transition ( units of r ==  m ) */
(PID.TID 0000.0001)                 1.234567000000000E+05
(PID.TID 0000.0001)     ;
(PID.TID 0000.0001) rkSign =   /* index orientation relative to vertical coordinate */
(PID.TID 0000.0001)                -1.000000000000000E+00
(PID.TID 0000.0001)     ;
(PID.TID 0000.0001) gravitySign = /* gravity orientation relative to vertical coordinate */
(PID.TID 0000.0001)                -1.000000000000000E+00
(PID.TID 0000.0001)     ;
(PID.TID 0000.0001) seaLev_Z =  /* reference height of sea-level [m] */
(PID.TID 0000.0001)                 0.000000000000000E+00
(PID.TID 0000.0001)     ;
(PID.TID 0000.0001) top_Pres =  /* reference pressure at the top [Pa] */
(PID.TID 0000.0001)                 0.000000000000000E+00
(PID.TID 0000.0001)     ;
(PID.TID 0000.0001) mass2rUnit = /* convert mass per unit area [kg/m2] to r-units [m] */
(PID.TID 0000.0001)                 9.661835748792270E-04
(PID.TID 0000.0001)     ;
(PID.TID 0000.0001) rUnit2mass = /* convert r-units [m] to mass per unit area [kg/m2] */
(PID.TID 0000.0001)                 1.035000000000000E+03
(PID.TID 0000.0001)     ;
(PID.TID 0000.0001) drC =   /* C spacing ( units of r ) */
(PID.TID 0000.0001)                 2.500000000000000E+01,      /* K =  1 */
(PID.TID 0000.0001)                 6.000000000000000E+01,      /* K =  2 */
(PID.TID 0000.0001)                 8.500000000000000E+01,      /* K =  3 */
(PID.TID 0000.0001)                 1.200000000000000E+02,      /* K =  4 */
(PID.TID 0000.0001)                 1.650000000000000E+02,      /* K =  5 */
(PID.TID 0000.0001)                 2.150000000000000E+02,      /* K =  6 */
(PID.TID 0000.0001)                 2.650000000000000E+02,      /* K =  7 */
(PID.TID 0000.0001)                 3.150000000000000E+02,      /* K =  8 */
(PID.TID 0000.0001)                 3.650000000000000E+02,      /* K =  9 */
(PID.TID 0000.0001)                 4.150000000000000E+02,      /* K = 10 */
(PID.TID 0000.0001)                 4.650000000000000E+02,      /* K = 11 */
(PID.TID 0000.0001)                 5.150000000000000E+02,      /* K = 12 */
(PID.TID 0000.0001)                 5.650000000000000E+02,      /* K = 13 */
(PID.TID 0000.0001)                 6.150000000000000E+02,      /* K = 14 */
(PID.TID 0000.0001)                 6.650000000000000E+02,      /* K = 15 */
(PID.TID 0000.0001)                 3.450000000000000E+02       /* K = 16 */
(PID.TID 0000.0001)     ;
(PID.TID 0000.0001) drF =   /* W spacing ( units of r ) */
(PID.TID 0000.0001)                 5.000000000000000E+01,      /* K =  1 */
(PID.TID 0000.0001)                 7.000000000000000E+01,      /* K =  2 */
(PID.TID 0000.0001)                 1.000000000000000E+02,      /* K =  3 */
(PID.TID 0000.0001)                 1.400000000000000E+02,      /* K =  4 */
(PID.TID 0000.0001)                 1.900000000000000E+02,      /* K =  5 */
(PID.TID 0000.0001)                 2.400000000000000E+02,      /* K =  6 */
(PID.TID 0000.0001)                 2.900000000000000E+02,      /* K =  7 */
(PID.TID 0000.0001)                 3.400000000000000E+02,      /* K =  8 */
(PID.TID 0000.0001)                 3.900000000000000E+02,      /* K =  9 */
(PID.TID 0000.0001)                 4.400000000000000E+02,      /* K = 10 */
(PID.TID 0000.0001)                 4.900000000000000E+02,      /* K = 11 */
(PID.TID 0000.0001)                 5.400000000000000E+02,      /* K = 12 */
(PID.TID 0000.0001)                 5.900000000000000E+02,      /* K = 13 */
(PID.TID 0000.0001)                 6.400000000000000E+02,      /* K = 14 */
(PID.TID 0000.0001)                 6.900000000000000E+02       /* K = 15 */
(PID.TID 0000.0001)     ;
(PID.TID 0000.0001) radius_fromHorizGrid = /* sphere Radius of input horiz. grid */
(PID.TID 0000.0001)                 6.370000000000000E+06
(PID.TID 0000.0001)     ;
(PID.TID 0000.0001) rSphere =  /* Radius ( ignored - cartesian, m - spherical ) */
(PID.TID 0000.0001)                 6.370000000000000E+06
(PID.TID 0000.0001)     ;
(PID.TID 0000.0001) deepAtmosphere = /* Deep/Shallow Atmosphere flag (True/False) */
(PID.TID 0000.0001)                   F
(PID.TID 0000.0001)     ;
(PID.TID 0000.0001) xC =  /* xC(:,1,:,1) : P-point X coord ( deg. or m if cartesian) */
(PID.TID 0000.0001)                -4.439521994760536E+01,      /* I =  1 */
(PID.TID 0000.0001)                -4.295641272275883E+01,      /* I =  2 */
(PID.TID 0000.0001)                -4.122055553388957E+01,      /* I =  3 */
(PID.TID 0000.0001)                -3.923446288487304E+01,      /* I =  4 */
(PID.TID 0000.0001)                -3.702585158682200E+01,      /* I =  5 */
(PID.TID 0000.0001)                -3.461179367094151E+01,      /* I =  6 */
(PID.TID 0000.0001)                -3.200434569041793E+01,      /* I =  7 */
(PID.TID 0000.0001)                -2.921355965632675E+01,      /* I =  8 */
(PID.TID 0000.0001)                -2.624932223028290E+01,      /* I =  9 */
(PID.TID 0000.0001)                -2.312261250426344E+01,      /* I = 10 */
(PID.TID 0000.0001)                -1.984640717127058E+01,      /* I = 11 */
(PID.TID 0000.0001)                -1.643630800555134E+01,      /* I = 12 */
(PID.TID 0000.0001)                -1.291089806302069E+01,      /* I = 13 */
(PID.TID 0000.0001)                -9.291807802719402E+00,      /* I = 14 */
(PID.TID 0000.0001)                -5.603475335822332E+00,      /* I = 15 */
(PID.TID 0000.0001)                -1.872608513033445E+00,      /* I = 16 */
(PID.TID 0000.0001)                 1.872608513033445E+00,      /* I = 17 */
(PID.TID 0000.0001)                 5.603475335822332E+00,      /* I = 18 */
(PID.TID 0000.0001)                 9.291807802719402E+00,      /* I = 19 */
(PID.TID 0000.0001)                 1.291089806302069E+01,      /* I = 20 */
(PID.TID 0000.0001)                 1.643630800555134E+01,      /* I = 21 */
(PID.TID 0000.0001)                 1.984640717127058E+01,      /* I = 22 */
(PID.TID 0000.0001)                 2.312261250426344E+01,      /* I = 23 */
(PID.TID 0000.0001)                 2.624932223028290E+01,      /* I = 24 */
(PID.TID 0000.0001)                 2.921355965632675E+01,      /* I = 25 */
(PID.TID 0000.0001)                 3.200434569041793E+01,      /* I = 26 */
(PID.TID 0000.0001)                 3.461179367094151E+01,      /* I = 27 */
(PID.TID 0000.0001)                 3.702585158682200E+01,      /* I = 28 */
(PID.TID 0000.0001)                 3.923446288487304E+01,      /* I = 29 */
(PID.TID 0000.0001)                 4.122055553388957E+01,      /* I = 30 */
(PID.TID 0000.0001)                 4.295641272275883E+01,      /* I = 31 */
(PID.TID 0000.0001)                 4.439521994760536E+01       /* I = 32 */
(PID.TID 0000.0001)     ;
(PID.TID 0000.0001) yC =  /* yC(1,:,1,:) : P-point Y coord ( deg. or m if cartesian) */
[...]
(PID.TID 0000.0001) %MON dynstat_sss_mean             =   3.4619187542280E+01
(PID.TID 0000.0001) %MON dynstat_sss_sd               =   1.4927372538154E+00
(PID.TID 0000.0001) %MON dynstat_sss_del2             =   1.3111679739166E-02
(PID.TID 0000.0001) %MON forcing_qnet_max             =   1.8615115966797E+03
(PID.TID 0000.0001) %MON forcing_qnet_min             =  -7.7063919035081E+02
(PID.TID 0000.0001) %MON forcing_qnet_mean            =  -4.6673555198855E+01
(PID.TID 0000.0001) %MON forcing_qnet_sd              =   2.0534715904475E+02
(PID.TID 0000.0001) %MON forcing_qnet_del2            =   3.5018144109811E+00
(PID.TID 0000.0001) %MON forcing_qsw_max              =   0.0000000000000E+00
(PID.TID 0000.0001) %MON forcing_qsw_min              =  -1.0220527701046E+02
(PID.TID 0000.0001) %MON forcing_qsw_mean             =  -2.1359905010972E+01
(PID.TID 0000.0001) %MON forcing_qsw_sd               =   3.0226643647712E+01
(PID.TID 0000.0001) %MON forcing_qsw_del2             =   2.3351377878882E-01
(PID.TID 0000.0001) %MON forcing_empmr_max            =   4.2336238548160E-03
(PID.TID 0000.0001) %MON forcing_empmr_min            =  -6.0876563191414E-02
(PID.TID 0000.0001) %MON forcing_empmr_mean           =  -1.8576151969814E-04
(PID.TID 0000.0001) %MON forcing_empmr_sd             =   2.6854842775855E-03
(PID.TID 0000.0001) %MON forcing_empmr_del2           =   1.0545158916413E-04
(PID.TID 0000.0001) %MON forcing_fu_max               =   2.3746635497017E-01
(PID.TID 0000.0001) %MON forcing_fu_min               =  -3.3339993544200E-01
(PID.TID 0000.0001) %MON forcing_fu_mean              =  -5.4834449456458E-03
(PID.TID 0000.0001) %MON forcing_fu_sd                =   5.5283563892012E-02
(PID.TID 0000.0001) %MON forcing_fu_del2              =   5.5569144582425E-04
(PID.TID 0000.0001) %MON forcing_fv_max               =   2.5543641185088E-01
(PID.TID 0000.0001) %MON forcing_fv_min               =  -2.5012649560416E-01
(PID.TID 0000.0001) %MON forcing_fv_mean              =  -1.4811906983615E-02
(PID.TID 0000.0001) %MON forcing_fv_sd                =   5.8881096927073E-02
(PID.TID 0000.0001) %MON forcing_fv_del2              =   4.9589339510420E-04
(PID.TID 0000.0001) %MON trAdv_CFL_u_max              =   1.8332650228380E-03
(PID.TID 0000.0001) %MON trAdv_CFL_v_max              =   1.3085568485922E-03
(PID.TID 0000.0001) %MON trAdv_CFL_w_max              =   1.2507581703292E-03
(PID.TID 0000.0001) %MON advcfl_uvel_max              =   1.8134014476253E-03
(PID.TID 0000.0001) %MON advcfl_vvel_max              =   1.2635270150119E-03
(PID.TID 0000.0001) %MON advcfl_wvel_max              =   2.1174456762231E-03
(PID.TID 0000.0001) %MON advcfl_W_hf_max              =   1.2507581703292E-03
(PID.TID 0000.0001) %MON pe_b_mean                    =   4.9713854457534E-04
(PID.TID 0000.0001) %MON ke_max                       =   1.8565717506576E-01
(PID.TID 0000.0001) %MON ke_mean                      =   1.6296910366167E-04
(PID.TID 0000.0001) %MON ke_vol                       =   1.3398153606250E+18
(PID.TID 0000.0001) %MON vort_r_min                   =  -2.6056112336015E-06
(PID.TID 0000.0001) %MON vort_r_max                   =   2.3936585931207E-06
(PID.TID 0000.0001) %MON vort_a_mean                  =  -2.0549865324846E-05
(PID.TID 0000.0001) %MON vort_a_sd                    =   7.5259655127572E-05
(PID.TID 0000.0001) %MON vort_p_mean                  =  -2.4783225881885E-05
(PID.TID 0000.0001) %MON vort_p_sd                    =   1.2811923997612E-04
(PID.TID 0000.0001) %MON surfExpan_theta_mean         =  -3.7976472490328E-06
(PID.TID 0000.0001) %MON surfExpan_salt_mean          =   8.0969175309342E-07
(PID.TID 0000.0001) // =======================================================
(PID.TID 0000.0001) // End MONITOR dynamic field statistics
(PID.TID 0000.0001) // =======================================================
 cg2d: Sum(rhs),rhsMax =  -8.48387655991493E+01  3.63289949832648E+01
(PID.TID 0000.0001)      cg2d_init_res =   1.62412287496219E-01
(PID.TID 0000.0001)      cg2d_iters(min,last) =      -1      10
(PID.TID 0000.0001)      cg2d_last_res =   3.23841173071605E-08
(PID.TID 0000.0001) // =======================================================
(PID.TID 0000.0001) // Begin MONITOR dynamic field statistics
(PID.TID 0000.0001) // =======================================================
(PID.TID 0000.0001) %MON time_tsnumber                =                 72095
(PID.TID 0000.0001) %MON time_secondsf                =   6.4885500000000E+07
(PID.TID 0000.0001) %MON dynstat_eta_max              =   9.5640470783050E-01
(PID.TID 0000.0001) %MON dynstat_eta_min              =  -1.5645003168154E+00
(PID.TID 0000.0001) %MON dynstat_eta_mean             =   3.5813675786890E-02
(PID.TID 0000.0001) %MON dynstat_eta_sd               =   6.0960533861476E-01
(PID.TID 0000.0001) %MON dynstat_eta_del2             =   1.3048847659598E-03
(PID.TID 0000.0001) %MON dynstat_uvel_max             =   2.9817861405312E-01
(PID.TID 0000.0001) %MON dynstat_uvel_min             =  -6.0858891670119E-01
(PID.TID 0000.0001) %MON dynstat_uvel_mean            =  -5.3175213777318E-04
(PID.TID 0000.0001) %MON dynstat_uvel_sd              =   1.2851991841306E-02
(PID.TID 0000.0001) %MON dynstat_uvel_del2            =   8.5360151943743E-05
(PID.TID 0000.0001) %MON dynstat_vvel_max             =   3.8168620321821E-01
(PID.TID 0000.0001) %MON dynstat_vvel_min             =  -3.5015707532334E-01
(PID.TID 0000.0001) %MON dynstat_vvel_mean            =   1.4270275317979E-04
(PID.TID 0000.0001) %MON dynstat_vvel_sd              =   1.3681363900896E-02
(PID.TID 0000.0001) %MON dynstat_vvel_del2            =   8.4744896901737E-05
(PID.TID 0000.0001) %MON dynstat_wvel_max             =   1.0731248381535E-04
(PID.TID 0000.0001) %MON dynstat_wvel_min             =  -1.9315940205465E-04
(PID.TID 0000.0001) %MON dynstat_wvel_mean            =  -4.4024905072898E-08
(PID.TID 0000.0001) %MON dynstat_wvel_sd              =   7.6178450665879E-06
(PID.TID 0000.0001) %MON dynstat_wvel_del2            =   6.4079875216696E-08
(PID.TID 0000.0001) %MON dynstat_theta_max            =   3.0917568382510E+01
(PID.TID 0000.0001) %MON dynstat_theta_min            =  -3.0218303824796E+00
(PID.TID 0000.0001) %MON dynstat_theta_mean           =   3.9092427457184E+00
(PID.TID 0000.0001) %MON dynstat_theta_sd             =   4.5718025480363E+00
(PID.TID 0000.0001) %MON dynstat_theta_del2           =   2.6373045621161E-03
(PID.TID 0000.0001) %MON dynstat_salt_max             =   4.1346933084086E+01
(PID.TID 0000.0001) %MON dynstat_salt_min             =   1.8519334590428E+01
(PID.TID 0000.0001) %MON dynstat_salt_mean            =   3.4771881637849E+01
(PID.TID 0000.0001) %MON dynstat_salt_sd              =   5.3236722696063E-01
(PID.TID 0000.0001) %MON dynstat_salt_del2            =   1.1535274831013E-03
(PID.TID 0000.0001) %MON dynstat_sst_max              =   3.0917568382510E+01
(PID.TID 0000.0001) %MON dynstat_sst_min              =  -1.8972123337677E+00
(PID.TID 0000.0001) %MON dynstat_sst_mean             =   1.8111106234655E+01
(PID.TID 0000.0001) %MON dynstat_sst_sd               =   9.8158142073306E+00
(PID.TID 0000.0001) %MON dynstat_sst_del2             =   1.4950023421911E-02
(PID.TID 0000.0001) %MON dynstat_sss_max              =   4.1346933084086E+01
(PID.TID 0000.0001) %MON dynstat_sss_min              =   1.8752591029253E+01
(PID.TID 0000.0001) %MON dynstat_sss_mean             =   3.4619089755917E+01
(PID.TID 0000.0001) %MON dynstat_sss_sd               =   1.4929537569669E+00
(PID.TID 0000.0001) %MON dynstat_sss_del2             =   1.3135447358402E-02
(PID.TID 0000.0001) %MON forcing_qnet_max             =   1.3087653176299E+03
(PID.TID 0000.0001) %MON forcing_qnet_min             =  -7.6032256349633E+02
(PID.TID 0000.0001) %MON forcing_qnet_mean            =  -4.8485698006232E+01
(PID.TID 0000.0001) %MON forcing_qnet_sd              =   2.0667705448474E+02
(PID.TID 0000.0001) %MON forcing_qnet_del2            =   3.1545192070398E+00
(PID.TID 0000.0001) %MON forcing_qsw_max              =   0.0000000000000E+00
(PID.TID 0000.0001) %MON forcing_qsw_min              =  -1.0309331914936E+02
(PID.TID 0000.0001) %MON forcing_qsw_mean             =  -2.1538169829291E+01
(PID.TID 0000.0001) %MON forcing_qsw_sd               =   3.0299707625242E+01
(PID.TID 0000.0001) %MON forcing_qsw_del2             =   2.3425276431206E-01
(PID.TID 0000.0001) %MON forcing_empmr_max            =   4.1900309734046E-03
(PID.TID 0000.0001) %MON forcing_empmr_min            =  -6.0250606387854E-02
(PID.TID 0000.0001) %MON forcing_empmr_mean           =  -1.8355190392382E-04
(PID.TID 0000.0001) %MON forcing_empmr_sd             =   2.6582596830586E-03
(PID.TID 0000.0001) %MON forcing_empmr_del2           =   1.0433896373439E-04
(PID.TID 0000.0001) %MON forcing_fu_max               =   2.4009533214376E-01
(PID.TID 0000.0001) %MON forcing_fu_min               =  -3.3321242268248E-01
(PID.TID 0000.0001) %MON forcing_fu_mean              =  -5.5481427844364E-03
(PID.TID 0000.0001) %MON forcing_fu_sd                =   5.5128412538758E-02
(PID.TID 0000.0001) %MON forcing_fu_del2              =   5.5448137687162E-04
(PID.TID 0000.0001) %MON forcing_fv_max               =   2.4491133359424E-01
(PID.TID 0000.0001) %MON forcing_fv_min               =  -2.4836468595708E-01
(PID.TID 0000.0001) %MON forcing_fv_mean              =  -1.4826760532600E-02
(PID.TID 0000.0001) %MON forcing_fv_sd                =   5.8573633986170E-02
(PID.TID 0000.0001) %MON forcing_fv_del2              =   4.9286974459703E-04
(PID.TID 0000.0001) %MON trAdv_CFL_u_max              =   1.7762422261313E-03
(PID.TID 0000.0001) %MON trAdv_CFL_v_max              =   1.3996221217941E-03
(PID.TID 0000.0001) %MON trAdv_CFL_w_max              =   1.2357640933587E-03
(PID.TID 0000.0001) %MON advcfl_uvel_max              =   1.7556816747076E-03
(PID.TID 0000.0001) %MON advcfl_vvel_max              =   1.3515295650392E-03
(PID.TID 0000.0001) %MON advcfl_wvel_max              =   2.0956732656645E-03
(PID.TID 0000.0001) %MON advcfl_W_hf_max              =   1.2357640933587E-03
(PID.TID 0000.0001) %MON pe_b_mean                    =   4.9676861615447E-04
(PID.TID 0000.0001) %MON ke_max                       =   1.8107637887252E-01
(PID.TID 0000.0001) %MON ke_mean                      =   1.6286255670825E-04
(PID.TID 0000.0001) %MON ke_vol                       =   1.3398154194043E+18
(PID.TID 0000.0001) %MON vort_r_min                   =  -2.6458035066395E-06
(PID.TID 0000.0001) %MON vort_r_max                   =   2.3113138405424E-06
(PID.TID 0000.0001) %MON vort_a_mean                  =  -2.0549865324846E-05
(PID.TID 0000.0001) %MON vort_a_sd                    =   7.5259655739153E-05
(PID.TID 0000.0001) %MON vort_p_mean                  =  -2.4783224851070E-05
(PID.TID 0000.0001) %MON vort_p_sd                    =   1.2811923891599E-04
(PID.TID 0000.0001) %MON surfExpan_theta_mean         =  -3.7069610856549E-06
(PID.TID 0000.0001) %MON surfExpan_salt_mean          =   7.9308164257796E-07
(PID.TID 0000.0001) // =======================================================
(PID.TID 0000.0001) // End MONITOR dynamic field statistics
(PID.TID 0000.0001) // =======================================================
 Computing Diagnostic #     81  oceTAUX      Counter:       1   Parms: UU      U1      
           Vector  Mate for  oceTAUX      Diagnostic #     82  oceTAUY  exists 
 Computing Diagnostic #     82  oceTAUY      Counter:       1   Parms: VV      U1      
           Vector  Mate for  oceTAUY      Diagnostic #     81  oceTAUX  exists 
 Computing Diagnostic #     85  oceFWflx     Counter:       1   Parms: SM      U1      
 Computing Diagnostic #     86  oceSflux     Counter:       1   Parms: SM      U1      
 Computing Diagnostic #     87  oceQnet      Counter:       1   Parms: SM      U1      
 Computing Diagnostic #     88  oceQsw       Counter:       1   Parms: SM      U1      
 Computing Diagnostic #     27  SALT         Counter:       1   Parms: SMR     MR      
 Computing Diagnostic #     26  THETA        Counter:       1   Parms: SMR     MR      
 Computing Diagnostic #     45  UVELMASS     Counter:       1   Parms: UUr     MR      
           Vector  Mate for  UVELMASS     Diagnostic #     46  VVELMASS exists 
 Computing Diagnostic #     46  VVELMASS     Counter:       1   Parms: VVr     MR      
           Vector  Mate for  VVELMASS     Diagnostic #     45  UVELMASS exists 
 cg2d: Sum(rhs),rhsMax =  -8.51630960926972E+01  3.63509600456083E+01
(PID.TID 0000.0001)      cg2d_init_res =   1.58223792374191E-01
(PID.TID 0000.0001)      cg2d_iters(min,last) =      -1      10
(PID.TID 0000.0001)      cg2d_last_res =   3.36542453749759E-08
(PID.TID 0000.0001) // =======================================================
(PID.TID 0000.0001) // Begin MONITOR dynamic field statistics
(PID.TID 0000.0001) // =======================================================
(PID.TID 0000.0001) %MON time_tsnumber                =                 72096
(PID.TID 0000.0001) %MON time_secondsf                =   6.4886400000000E+07
(PID.TID 0000.0001) %MON dynstat_eta_max              =   9.5181510325030E-01
(PID.TID 0000.0001) %MON dynstat_eta_min              =  -1.5661018347075E+00
(PID.TID 0000.0001) %MON dynstat_eta_mean             =   3.5972324318767E-02
(PID.TID 0000.0001) %MON dynstat_eta_sd               =   6.0934130940947E-01
(PID.TID 0000.0001) %MON dynstat_eta_del2             =   1.3095061794132E-03
(PID.TID 0000.0001) %MON dynstat_uvel_max             =   2.8433228905877E-01
(PID.TID 0000.0001) %MON dynstat_uvel_min             =  -5.9109727311137E-01
(PID.TID 0000.0001) %MON dynstat_uvel_mean            =  -5.3649578283899E-04
(PID.TID 0000.0001) %MON dynstat_uvel_sd              =   1.2848061240003E-02
(PID.TID 0000.0001) %MON dynstat_uvel_del2            =   8.5229574680346E-05
(PID.TID 0000.0001) %MON dynstat_vvel_max             =   4.0485685637837E-01
(PID.TID 0000.0001) %MON dynstat_vvel_min             =  -3.5175282071997E-01
(PID.TID 0000.0001) %MON dynstat_vvel_mean            =   1.4971553392170E-04
(PID.TID 0000.0001) %MON dynstat_vvel_sd              =   1.3678288255143E-02
(PID.TID 0000.0001) %MON dynstat_vvel_del2            =   8.4797826639036E-05
(PID.TID 0000.0001) %MON dynstat_wvel_max             =   1.0751454903691E-04
(PID.TID 0000.0001) %MON dynstat_wvel_min             =  -1.9326408545658E-04
(PID.TID 0000.0001) %MON dynstat_wvel_mean            =  -4.5215686486474E-08
(PID.TID 0000.0001) %MON dynstat_wvel_sd              =   7.6290268415526E-06
(PID.TID 0000.0001) %MON dynstat_wvel_del2            =   6.3910418058753E-08
(PID.TID 0000.0001) %MON dynstat_theta_max            =   3.0917228845721E+01
(PID.TID 0000.0001) %MON dynstat_theta_min            =  -3.0225520635502E+00
(PID.TID 0000.0001) %MON dynstat_theta_mean           =   3.9092466372339E+00
(PID.TID 0000.0001) %MON dynstat_theta_sd             =   4.5718190877142E+00
(PID.TID 0000.0001) %MON dynstat_theta_del2           =   2.6371675787249E-03
(PID.TID 0000.0001) %MON dynstat_salt_max             =   4.1347037069432E+01
(PID.TID 0000.0001) %MON dynstat_salt_min             =   1.8519344721025E+01
(PID.TID 0000.0001) %MON dynstat_salt_mean            =   3.4771880348369E+01
(PID.TID 0000.0001) %MON dynstat_salt_sd              =   5.3237593479114E-01
(PID.TID 0000.0001) %MON dynstat_salt_del2            =   1.1551971161395E-03
(PID.TID 0000.0001) %MON dynstat_sst_max              =   3.0917228845721E+01
(PID.TID 0000.0001) %MON dynstat_sst_min              =  -1.8971291527022E+00
(PID.TID 0000.0001) %MON dynstat_sst_mean             =   1.8111322052290E+01
(PID.TID 0000.0001) %MON dynstat_sst_sd               =   9.8160226571574E+00
(PID.TID 0000.0001) %MON dynstat_sst_del2             =   1.4947415283859E-02
(PID.TID 0000.0001) %MON dynstat_sss_max              =   4.1347037069432E+01
(PID.TID 0000.0001) %MON dynstat_sss_min              =   1.8752603734023E+01
(PID.TID 0000.0001) %MON dynstat_sss_mean             =   3.4618992975636E+01
(PID.TID 0000.0001) %MON dynstat_sss_sd               =   1.4931670613475E+00
(PID.TID 0000.0001) %MON dynstat_sss_del2             =   1.3158663736706E-02
(PID.TID 0000.0001) %MON forcing_qnet_max             =   2.0539965820312E+03
(PID.TID 0000.0001) %MON forcing_qnet_min             =  -7.5021895985294E+02
(PID.TID 0000.0001) %MON forcing_qnet_mean            =  -4.9352322998142E+01
(PID.TID 0000.0001) %MON forcing_qnet_sd              =   2.0973062945819E+02
(PID.TID 0000.0001) %MON forcing_qnet_del2            =   3.4666103617849E+00
(PID.TID 0000.0001) %MON forcing_qsw_max              =   0.0000000000000E+00
(PID.TID 0000.0001) %MON forcing_qsw_min              =  -1.0427403482856E+02
(PID.TID 0000.0001) %MON forcing_qsw_mean             =  -2.1655558333093E+01
(PID.TID 0000.0001) %MON forcing_qsw_sd               =   3.0317146041312E+01
(PID.TID 0000.0001) %MON forcing_qsw_del2             =   2.3448342044357E-01
(PID.TID 0000.0001) %MON forcing_empmr_max            =   4.1468315757811E-03
(PID.TID 0000.0001) %MON forcing_empmr_min            =  -5.9630516916513E-02
(PID.TID 0000.0001) %MON forcing_empmr_mean           =  -1.8244581165903E-04
(PID.TID 0000.0001) %MON forcing_empmr_sd             =   2.6316164410847E-03
(PID.TID 0000.0001) %MON forcing_empmr_del2           =   1.0325410078559E-04
(PID.TID 0000.0001) %MON forcing_fu_max               =   2.3616329351261E-01
(PID.TID 0000.0001) %MON forcing_fu_min               =  -3.3167262863690E-01
(PID.TID 0000.0001) %MON forcing_fu_mean              =  -5.6161966781355E-03
(PID.TID 0000.0001) %MON forcing_fu_sd                =   5.4835222253587E-02
(PID.TID 0000.0001) %MON forcing_fu_del2              =   5.5221153398510E-04
(PID.TID 0000.0001) %MON forcing_fv_max               =   2.4173672795121E-01
(PID.TID 0000.0001) %MON forcing_fv_min               =  -2.4667219227472E-01
(PID.TID 0000.0001) %MON forcing_fv_mean              =  -1.4817665632087E-02
(PID.TID 0000.0001) %MON forcing_fv_sd                =   5.8363017484907E-02
(PID.TID 0000.0001) %MON forcing_fv_del2              =   4.9200153481571E-04
(PID.TID 0000.0001) %MON trAdv_CFL_u_max              =   1.7137896374382E-03
(PID.TID 0000.0001) %MON trAdv_CFL_v_max              =   1.4846952014291E-03
(PID.TID 0000.0001) %MON trAdv_CFL_w_max              =   1.2201252473193E-03
(PID.TID 0000.0001) %MON advcfl_uvel_max              =   1.6929933955174E-03
(PID.TID 0000.0001) %MON advcfl_vvel_max              =   1.4335755560213E-03
(PID.TID 0000.0001) %MON advcfl_wvel_max              =   2.0741049362266E-03
(PID.TID 0000.0001) %MON advcfl_W_hf_max              =   1.2617633027144E-03
(PID.TID 0000.0001) %MON pe_b_mean                    =   4.9635502350963E-04
(PID.TID 0000.0001) %MON ke_max                       =   1.7557900877263E-01
(PID.TID 0000.0001) %MON ke_mean                      =   1.6278038711876E-04
(PID.TID 0000.0001) %MON ke_vol                       =   1.3398154774844E+18
(PID.TID 0000.0001) %MON vort_r_min                   =  -2.6836549058610E-06
(PID.TID 0000.0001) %MON vort_r_max                   =   2.2232283364266E-06
(PID.TID 0000.0001) %MON vort_a_mean                  =  -2.0549865324846E-05
(PID.TID 0000.0001) %MON vort_a_sd                    =   7.5259656603068E-05
(PID.TID 0000.0001) %MON vort_p_mean                  =  -2.4783223832636E-05
(PID.TID 0000.0001) %MON vort_p_sd                    =   1.2811923644354E-04
(PID.TID 0000.0001) %MON surfExpan_theta_mean         =  -3.6552735287479E-06
(PID.TID 0000.0001) %MON surfExpan_salt_mean          =   7.7845690434785E-07
(PID.TID 0000.0001) // =======================================================
(PID.TID 0000.0001) // End MONITOR dynamic field statistics
(PID.TID 0000.0001) // =======================================================
(PID.TID 0000.0001) %CHECKPOINT     72096 ckptA
