(PID.TID 0000.0001) 
(PID.TID 0000.0001) // ======================================================
(PID.TID 0000.0001) //                      MITgcm UV
(PID.TID 0000.0001) //                      =========
(PID.TID 0000.0001) // ======================================================
(PID.TID 0000.0001) // execution environment starting up...
(PID.TID 0000.0001) 
(PID.TID 0000.0001) // MITgcmUV version:  checkpoint67p
(PID.TID 0000.0001) // Build user:        estrobac
(PID.TID 0000.0001) // Build host:        r435i2n10
(PID.TID 0000.0001) // Build date:        Wed Mar 11 13:34:33 PDT 2020
(PID.TID 0000.0001) 
(PID.TID 0000.0001) // =======================================================
(PID.TID 0000.0001) // Execution Environment parameter file "eedata"
(PID.TID 0000.0001) // =======================================================
(PID.TID 0000.0001) ># Example "eedata" file
(PID.TID 0000.0001) ># Lines beginning "#" are comments
(PID.TID 0000.0001) ># nTx - No. threads per process in X
(PID.TID 0000.0001) ># nTy - No. threads per process in Y
(PID.TID 0000.0001) > &EEPARMS
(PID.TID 0000.0001) > useCubedSphereExchange=.TRUE.,
(PID.TID 0000.0001) > nTx=1,
(PID.TID 0000.0001) > nTy=1,
(PID.TID 0000.0001) >#debugMode=.TRUE.,
(PID.TID 0000.0001) > &
(PID.TID 0000.0001) ># Note: Some systems use & as the namelist terminator (as shown here).
(PID.TID 0000.0001) >#       Other systems use a / character.
(PID.TID 0000.0001) 
(PID.TID 0000.0001) // =======================================================
(PID.TID 0000.0001) // Computational Grid Specification ( see files "SIZE.h" )
(PID.TID 0000.0001) //                                  ( and "eedata"       )
(PID.TID 0000.0001) // =======================================================
(PID.TID 0000.0001)      nPx =   96 ; /* No. processes in X */
(PID.TID 0000.0001)      nPy =    1 ; /* No. processes in Y */
(PID.TID 0000.0001)      nSx =    1 ; /* No. tiles in X per process */
(PID.TID 0000.0001)      nSy =    1 ; /* No. tiles in Y per process */
(PID.TID 0000.0001)      sNx =   30 ; /* Tile size in X */
(PID.TID 0000.0001)      sNy =   30 ; /* Tile size in Y */
(PID.TID 0000.0001)      OLx =    4 ; /* Tile overlap distance in X */
(PID.TID 0000.0001)      OLy =    4 ; /* Tile overlap distance in Y */
(PID.TID 0000.0001)      nTx =    1 ; /* No. threads in X per process */
(PID.TID 0000.0001)      nTy =    1 ; /* No. threads in Y per process */
(PID.TID 0000.0001)       Nr =   50 ; /* No. levels in the vertical   */
(PID.TID 0000.0001)       Nx = 2880 ; /* Total domain size in X ( = nPx*nSx*sNx ) */
(PID.TID 0000.0001)       Ny =   30 ; /* Total domain size in Y ( = nPy*nSy*sNy ) */
(PID.TID 0000.0001)   nTiles =    1 ; /* Total no. tiles per process ( = nSx*nSy ) */
(PID.TID 0000.0001)   nProcs =   96 ; /* Total no. processes ( = nPx*nPy ) */
(PID.TID 0000.0001) nThreads =    1 ; /* Total no. threads per process ( = nTx*nTy ) */
(PID.TID 0000.0001) usingMPI =    T ; /* Flag used to control whether MPI is in use */
(PID.TID 0000.0001)                   /*  note: To execute a program with MPI calls */
(PID.TID 0000.0001)                   /*  it must be launched appropriately e.g     */
(PID.TID 0000.0001)                   /*  "mpirun -np 64 ......"                    */
(PID.TID 0000.0001) useCoupler=    F ;/* Flag used to control communications with   */
(PID.TID 0000.0001)                   /*  other model components, through a coupler */
(PID.TID 0000.0001) useNest2W_parent =    F ;/* Control 2-W Nesting comm */
(PID.TID 0000.0001) useNest2W_child  =    F ;/* Control 2-W Nesting comm */
(PID.TID 0000.0001) debugMode =    F ; /* print debug msg. (sequence of S/R calls)  */
(PID.TID 0000.0001) printMapIncludesZeros=    F ; /* print zeros in Std.Output maps */
(PID.TID 0000.0001) maxLengthPrt1D=   65 /* maxLength of 1D array printed to StdOut */
(PID.TID 0000.0001) 
(PID.TID 0000.0001) ======= Starting MPI parallel Run =========
(PID.TID 0000.0001)  My Processor Name (len:  9 ) = r435i2n10
(PID.TID 0000.0001)  Located at (  0,  0) on processor grid (0: 95,0:  0)
(PID.TID 0000.0001)  Origin at  (     1,     1) on global grid (1:  2880,1:    30)
(PID.TID 0000.0001)  North neighbor = processor 0000
(PID.TID 0000.0001)  South neighbor = processor 0000
(PID.TID 0000.0001)   East neighbor = processor 0001
(PID.TID 0000.0001)   West neighbor = processor 0095
(PID.TID 0000.0001) // ======================================================
(PID.TID 0000.0001) // Mapping of tiles to threads
(PID.TID 0000.0001) // ======================================================
(PID.TID 0000.0001) // -o- Thread   1, tiles (   1:   1,   1:   1)
(PID.TID 0000.0001) 
(PID.TID 0000.0001) W2_READPARMS: opening data.exch2
(PID.TID 0000.0001)  OPEN_COPY_DATA_FILE: opening file data.exch2
(PID.TID 0000.0001) // =======================================================
(PID.TID 0000.0001) // Parameter file "data.exch2"
(PID.TID 0000.0001) // =======================================================
(PID.TID 0000.0001) ># EXCH2 Package: Wrapper-2 User Choice
(PID.TID 0000.0001) >#--------------------
(PID.TID 0000.0001) >#  preDefTopol   :: pre-defined Topology selector:
(PID.TID 0000.0001) >#                :: = 0 : topology defined from processing "data.exch2";
(PID.TID 0000.0001) >#                :: = 1 : simple, single facet topology;
(PID.TID 0000.0001) >#                :: = 2 : customized topology (w2_set_myown_facets)
(PID.TID 0000.0001) >#                :: = 3 : 6-facet Cube (3 face-dims: nRed, nGreen, nBlue).
(PID.TID 0000.0001) >#  dimsFacets    :: facet pair of dimensions (n1x,n1y, n2x,n2y ...)
(PID.TID 0000.0001) >#  facetEdgeLink :: Face-Edge connectivity map:
(PID.TID 0000.0001) >#    facetEdgeLink(i,j)=XX.1 : face(j)-edge(i) (i=1,2,3,4 <==> N,S,E,W)
(PID.TID 0000.0001) >#    is connected to Northern edge of face "XX" ; similarly,
(PID.TID 0000.0001) >#    = XX.2 : to Southern.E, XX.3 = Eastern.E, XX.4 = Western.E of face "XX"
(PID.TID 0000.0001) >#  blankList     :: List of "blank" tiles
(PID.TID 0000.0001) >#  W2_mapIO      :: global map IO selector (-1 = old type ; 0 = 1 long line in X
(PID.TID 0000.0001) >#                :: 1 = compact, mostly in Y dir)
(PID.TID 0000.0001) >#  W2_printMsg   :: option for information messages printing
(PID.TID 0000.0001) >#                :: <0 : write to log file ; =0 : minimum print ;
(PID.TID 0000.0001) >#                :: =1 : no duplicated print ; =2 : all processes do print
(PID.TID 0000.0001) >#--------------------
(PID.TID 0000.0001) > &W2_EXCH2_PARM01
(PID.TID 0000.0001) ># W2_printMsg= 0,
(PID.TID 0000.0001) >  W2_mapIO   = 1,
(PID.TID 0000.0001) >#
(PID.TID 0000.0001) >  preDefTopol=0,
(PID.TID 0000.0001) >#-- 5 facets llc_120 topology (drop facet 6 and its connection):
(PID.TID 0000.0001) >  dimsFacets(1:10) = 90, 270, 90, 270, 90, 90, 270, 90, 270, 90,
(PID.TID 0000.0001) >  facetEdgeLink(1:4,1)= 3.4, 0. , 2.4, 5.1,
(PID.TID 0000.0001) >  facetEdgeLink(1:4,2)= 3.2, 0. , 4.2, 1.3,
(PID.TID 0000.0001) >  facetEdgeLink(1:4,3)= 5.4, 2.1, 4.4, 1.1,
(PID.TID 0000.0001) >  facetEdgeLink(1:4,4)= 5.2, 2.3, 0. , 3.3,
(PID.TID 0000.0001) >  facetEdgeLink(1:4,5)= 1.4, 4.1, 0. , 3.1,
(PID.TID 0000.0001) >#-- full 6 facets llc_120 topology (equivalent to default preDefTopol=3):
(PID.TID 0000.0001) ># dimsFacets(1:12) = 120, 360, 120, 360, 120, 120, 360, 120, 360, 120, 120, 120,
(PID.TID 0000.0001) ># facetEdgeLink(1:4,1)= 3.4, 6.1, 2.4, 5.1,
(PID.TID 0000.0001) ># facetEdgeLink(1:4,2)= 3.2, 6.3, 4.2, 1.3,
(PID.TID 0000.0001) ># facetEdgeLink(1:4,3)= 5.4, 2.1, 4.4, 1.1,
(PID.TID 0000.0001) ># facetEdgeLink(1:4,4)= 5.2, 2.3, 6.2, 3.3,
(PID.TID 0000.0001) ># facetEdgeLink(1:4,5)= 1.4, 4.1, 6.4, 3.1,
(PID.TID 0000.0001) ># facetEdgeLink(1:4,6)= 1.2, 4.3, 2.2, 5.3,
(PID.TID 0000.0001) >#
(PID.TID 0000.0001) >#90x30   nprocs = 36
(PID.TID 0000.0001) ># blankList(1:3)=1,10,11,
(PID.TID 0000.0001) >#30x90
(PID.TID 0000.0001) >#
(PID.TID 0000.0001) >#45x30   nprocs = 72
(PID.TID 0000.0001) ># blankList(1:6)=1,2,19,20,21,22
(PID.TID 0000.0001) >#30x45   nprocs = 68
(PID.TID 0000.0001) ># blankList(1:10)=2,3,19,20,21,35,51,60,69,78
(PID.TID 0000.0001) >#45x45   nprocs = 48
(PID.TID 0000.0001) ># blankList(1:4)=2,13,14,23
(PID.TID 0000.0001) >#30x30   nprocs = 96
(PID.TID 0000.0001) >  blankList(1:21)=1,2,3,5,6,28,29,30,31,32,33,49,50,52,53,72,81,90,99,108,117
(PID.TID 0000.0001) >#30x30   nprocs = 112
(PID.TID 0000.0001) ># blankList(1:5)=2,3,28,29,30
(PID.TID 0000.0001) >#15x30   nprocs = 192
(PID.TID 0000.0001) ># blankList(1:42)=1,2,3,4,5,6,9,10,11,12,55,56,57,58,59,60,61,62,63,64,65,66,
(PID.TID 0000.0001) >#            97,98,99,100,103,104,105,106,143,144,
(PID.TID 0000.0001) >#            161,162,179,180,197,198,215,216,233,234
(PID.TID 0000.0001) >#15x15   nprocs = 360
(PID.TID 0000.0001) ># blankList(1:108)=1,2,3,4,5,6,7,8,9,10,11,12,14,15,16,17,18,21,22,23,24,
(PID.TID 0000.0001) >#  65,71,75,76,90,95,96,101,102,109,110,111,112,113,114,115,116,117,118,119,
(PID.TID 0000.0001) >#  120,121,122,123,124,125,126,127,128,129,130,131,132,
(PID.TID 0000.0001) >#  188,189,190,193,194,195,196,199,
(PID.TID 0000.0001) >#  200,201,202,203,205,206,207,208,209,211,212,213,214,215,216,242,247,253,
(PID.TID 0000.0001) >#  267,268,269,270,287,288,305,306,323,324,341,342,359,360,362,376,377,378,
(PID.TID 0000.0001) >#  380,381,382,395,396,400,412,413,414,430,
(PID.TID 0000.0001) >#note: it seems that 8 of the followig 9 tiles could be added to 15x15 blank
(PID.TID 0000.0001) >#  list to reach 352=22*16 cores : 431 432 440 441 448 449 450 467 468
(PID.TID 0000.0001) > &
(PID.TID 0000.0001) 
(PID.TID 0000.0001) W2_READPARMS: finished reading data.exch2
(PID.TID 0000.0001) W2_useE2ioLayOut=    T ;/* T: use Exch2 glob IO map; F: use model default */
(PID.TID 0000.0001) W2_mapIO        =   1 ; /* select option for Exch2 global-IO map */
(PID.TID 0000.0001) W2_printMsg     =  -1 ; /* select option for printing information */
(PID.TID 0000.0001) ===== Start setting W2 TOPOLOGY:
(PID.TID 0000.0001)  write to log-file: w2_tile_topology.0000.log
(PID.TID 0000.0001) =====       setting W2 TOPOLOGY: Done
(PID.TID 0000.0001) 
(PID.TID 0000.0001)  INI_PARMS: opening model parameter file "data"
(PID.TID 0000.0001)  OPEN_COPY_DATA_FILE: opening file data
(PID.TID 0000.0001) // =======================================================
(PID.TID 0000.0001) // Parameter file "data"
(PID.TID 0000.0001) // =======================================================
(PID.TID 0000.0001) ># ====================
(PID.TID 0000.0001) ># | Model parameters |
(PID.TID 0000.0001) ># ====================
(PID.TID 0000.0001) >#
(PID.TID 0000.0001) ># Continuous equation parameters
(PID.TID 0000.0001) > &PARM01
(PID.TID 0000.0001) > tRef               = 3*23.,3*22.,21.,2*20.,19.,2*18.,17.,2*16.,15.,14.,13.,
(PID.TID 0000.0001) >                      12.,11.,2*9.,8.,7.,2*6.,2*5.,3*4.,3*3.,4*2.,12*1.,
(PID.TID 0000.0001) > sRef               = 50*34.5,
(PID.TID 0000.0001) > no_slip_sides  = .TRUE.,
(PID.TID 0000.0001) > no_slip_bottom = .TRUE.,
(PID.TID 0000.0001) >#
(PID.TID 0000.0001) > viscAr=0.5E-4,
(PID.TID 0000.0001) >#
(PID.TID 0000.0001) > viscAh=1.E0,
(PID.TID 0000.0001) > viscAhGrid=2.E-2,
(PID.TID 0000.0001) ># viscAh=2.0e4,
(PID.TID 0000.0001) >#
(PID.TID 0000.0001) > diffKhT=1.E1,
(PID.TID 0000.0001) > diffKrT=1.E-5,
(PID.TID 0000.0001) > diffKhS=1.E1,
(PID.TID 0000.0001) > diffKrS=1.E-5,
(PID.TID 0000.0001) >#
(PID.TID 0000.0001) >### diffKrBL79surf=0.1E-4,
(PID.TID 0000.0001) >### diffKrBL79deep=1.0E-4,
(PID.TID 0000.0001) > bottomDragQuadratic = 0.001,
(PID.TID 0000.0001) >#when using ggl90
(PID.TID 0000.0001) > ivdc_kappa=10.,
(PID.TID 0000.0001) > implicitDiffusion=.TRUE.,
(PID.TID 0000.0001) > implicitViscosity=.TRUE.,
(PID.TID 0000.0001) > useRealFreshWaterFlux=.TRUE.,
(PID.TID 0000.0001) ># balanceThetaClimRelax=.TRUE.,
(PID.TID 0000.0001) > balanceSaltClimRelax=.TRUE.,
(PID.TID 0000.0001) ># balanceEmPmR=.TRUE.,
(PID.TID 0000.0001) ># balanceQnet=.TRUE.,
(PID.TID 0000.0001) > allowFreezing=.FALSE.,
(PID.TID 0000.0001) >### hFacInf=0.2,
(PID.TID 0000.0001) >### hFacSup=2.0,
(PID.TID 0000.0001) > hFacMin=.2,
(PID.TID 0000.0001) > hFacMinDr=5.,
(PID.TID 0000.0001) > select_rStar=2,
(PID.TID 0000.0001) > nonlinFreeSurf=4,
(PID.TID 0000.0001) > gravity=9.81,
(PID.TID 0000.0001) > rhonil=1029.,
(PID.TID 0000.0001) > rhoConst=1029.,
(PID.TID 0000.0001) > rhoConstFresh=1000.,
(PID.TID 0000.0001) > convertFW2Salt=-1.,
(PID.TID 0000.0001) > eosType='JMD95Z',
(PID.TID 0000.0001) > implicitFreeSurface=.TRUE.,
(PID.TID 0000.0001) > exactConserv=.TRUE.,
(PID.TID 0000.0001) > useSingleCpuIO=.TRUE.,
(PID.TID 0000.0001) > tempAdvScheme=30,
(PID.TID 0000.0001) > saltAdvScheme=30,
(PID.TID 0000.0001) > tempVertAdvScheme=3,
(PID.TID 0000.0001) > saltVertAdvScheme=3,
(PID.TID 0000.0001) > tempImplVertAdv=.TRUE.,
(PID.TID 0000.0001) > saltImplVertAdv=.TRUE.,
(PID.TID 0000.0001) > staggerTimeStep=.TRUE.,
(PID.TID 0000.0001) > vectorInvariantMomentum=.TRUE.,
(PID.TID 0000.0001) >#when using the cd scheme:
(PID.TID 0000.0001) ># useCDscheme=.TRUE.,
(PID.TID 0000.0001) > useJamartWetPoints=.TRUE.,
(PID.TID 0000.0001) > readBinaryPrec=32,
(PID.TID 0000.0001) > writeBinaryPrec=32,
(PID.TID 0000.0001) > debugLevel=1,
(PID.TID 0000.0001) > &
(PID.TID 0000.0001) >
(PID.TID 0000.0001) ># Elliptic solver parameters
(PID.TID 0000.0001) > &PARM02
(PID.TID 0000.0001) > cg2dMaxIters=300,
(PID.TID 0000.0001) > cg2dTargetResWunit=1.E-12,
(PID.TID 0000.0001) > &
(PID.TID 0000.0001) >
(PID.TID 0000.0001) ># Time stepping parameters
(PID.TID 0000.0001) > &PARM03
(PID.TID 0000.0001) > nIter0=1,
(PID.TID 0000.0001) >#2 lev2 for testing:
(PID.TID 0000.0001) >#nTimeSteps       = 96,
(PID.TID 0000.0001) >#20y:
(PID.TID 0000.0001) > nTimeSteps       = 96,
(PID.TID 0000.0001) >#60 years
(PID.TID 0000.0001) >#nTimeSteps       = 96,
(PID.TID 0000.0001) >#
(PID.TID 0000.0001) > forcing_In_AB=.FALSE.,
(PID.TID 0000.0001) > momDissip_In_AB=.FALSE.,
(PID.TID 0000.0001) >#when using the cd scheme:
(PID.TID 0000.0001) ># epsAB_CD = 0.25,
(PID.TID 0000.0001) ># tauCD=172800.0,
(PID.TID 0000.0001) > deltaT = 900.,
(PID.TID 0000.0001) >#when using ab2:
(PID.TID 0000.0001) > abEps = 0.1,
(PID.TID 0000.0001) >#when using ab3:
(PID.TID 0000.0001) ># doAB_onGtGs=.FALSE.,
(PID.TID 0000.0001) ># alph_AB=0.5,
(PID.TID 0000.0001) ># beta_AB=0.281105,
(PID.TID 0000.0001) >#
(PID.TID 0000.0001) > pChkptFreq        = 86400.0,
(PID.TID 0000.0001) > chkptFreq        = 86400.0,
(PID.TID 0000.0001) ># taveFreq    =31536000.0,
(PID.TID 0000.0001) ># dumpFreq    =31536000.0,
(PID.TID 0000.0001) > monitorFreq = 7200.0,
(PID.TID 0000.0001) > dumpInitAndLast = .TRUE.,
(PID.TID 0000.0001) > pickupStrictlyMatch=.FALSE.,
(PID.TID 0000.0001) > &
(PID.TID 0000.0001) >
(PID.TID 0000.0001) ># Gridding parameters
(PID.TID 0000.0001) > &PARM04
(PID.TID 0000.0001) > usingCurvilinearGrid=.TRUE.,
(PID.TID 0000.0001) > delR =
(PID.TID 0000.0001) >     10.00, 10.00, 10.00, 10.00, 10.00, 10.00, 10.00, 10.01,
(PID.TID 0000.0001) >     10.03, 10.11, 10.32, 10.80, 11.76, 13.42, 16.04, 19.82, 24.85,
(PID.TID 0000.0001) >     31.10, 38.42, 46.50, 55.00, 63.50, 71.58, 78.90, 85.15, 90.18,
(PID.TID 0000.0001) >     93.96, 96.58, 98.25, 99.25,100.01,101.33,104.56,111.33,122.83,
(PID.TID 0000.0001) >     139.09,158.94,180.83,203.55,226.50,249.50,272.50,295.50,318.50,
(PID.TID 0000.0001) >     341.50,364.50,387.50,410.50,433.50,456.50,
(PID.TID 0000.0001) > &
(PID.TID 0000.0001) >
(PID.TID 0000.0001) ># Input datasets
(PID.TID 0000.0001) > &PARM05
(PID.TID 0000.0001) >#adTapeDir='tapes',
(PID.TID 0000.0001) > bathyFile      ='bathy.bin',
(PID.TID 0000.0001) > hydrogThetaFile='T_OWPv1_M_eccollc_90x50.bin',
(PID.TID 0000.0001) > hydrogSaltFile ='S_OWPv1_M_eccollc_90x50.bin',
(PID.TID 0000.0001) > viscA4Dfile    ='viscA4Dfld.bin',
(PID.TID 0000.0001) > viscA4Zfile    ='viscA4Zfld.bin',
(PID.TID 0000.0001) > geothermalFile='geothermalFlux.bin',
(PID.TID 0000.0001) >#
(PID.TID 0000.0001) > &
(PID.TID 0000.0001) 
(PID.TID 0000.0001)  INI_PARMS ; starts to read PARM01
(PID.TID 0000.0001)  INI_PARMS ; read PARM01 : OK
(PID.TID 0000.0001)  INI_PARMS ; starts to read PARM02
(PID.TID 0000.0001)  INI_PARMS ; read PARM02 : OK
(PID.TID 0000.0001)  INI_PARMS ; starts to read PARM03
(PID.TID 0000.0001)  INI_PARMS ; read PARM03 : OK
(PID.TID 0000.0001)  INI_PARMS ; starts to read PARM04
(PID.TID 0000.0001)  INI_PARMS ; read PARM04 : OK
(PID.TID 0000.0001)  INI_PARMS ; starts to read PARM05
(PID.TID 0000.0001)  INI_PARMS ; read PARM05 : OK
(PID.TID 0000.0001)  INI_PARMS: finished reading file "data"
(PID.TID 0000.0001)  PACKAGES_BOOT: opening data.pkg
(PID.TID 0000.0001)  OPEN_COPY_DATA_FILE: opening file data.pkg
(PID.TID 0000.0001) // =======================================================
(PID.TID 0000.0001) // Parameter file "data.pkg"
(PID.TID 0000.0001) // =======================================================
(PID.TID 0000.0001) ># Packages
(PID.TID 0000.0001) > &PACKAGES
(PID.TID 0000.0001) > useGMRedi          = .TRUE.,
(PID.TID 0000.0001) > useGGL90           = .TRUE.,
(PID.TID 0000.0001) > useSALT_PLUME      = .TRUE.,
(PID.TID 0000.0001) > useDiagnostics     = .TRUE.,
(PID.TID 0000.0001) > useCTRL            = .TRUE.,
(PID.TID 0000.0001) > useSEAICE          = .TRUE.,
(PID.TID 0000.0001) > &
(PID.TID 0000.0001) 
(PID.TID 0000.0001)  PACKAGES_BOOT: finished reading data.pkg
(PID.TID 0000.0001)  PACKAGES_BOOT: On/Off package Summary
 --------  pkgs with a standard "usePKG" On/Off switch in "data.pkg":  --------
 pkg/ggl90                compiled   and   used ( useGGL90                 = T )
 pkg/gmredi               compiled   and   used ( useGMRedi                = T )
 pkg/ctrl                 compiled   and   used ( useCTRL                  = T )
 pkg/seaice               compiled   and   used ( useSEAICE                = T )
 pkg/salt_plume           compiled   and   used ( useSALT_PLUME            = T )
 pkg/diagnostics          compiled   and   used ( useDiagnostics           = T )
 -------- pkgs without standard "usePKG" On/Off switch in "data.pkg":  --------
 pkg/generic_advdiff      compiled   and   used ( useGAD                   = T )
 pkg/mom_common           compiled   and   used ( momStepping              = T )
 pkg/mom_vecinv           compiled   and   used ( +vectorInvariantMomentum = T )
 pkg/monitor              compiled   and   used ( monitorFreq > 0.         = T )
 pkg/debug                compiled but not used ( debugMode                = F )
 pkg/exch2                compiled   and   used
 pkg/rw                   compiled   and   used
 pkg/mdsio                compiled   and   used
(PID.TID 0000.0001)  PACKAGES_BOOT: End of package Summary
(PID.TID 0000.0001) 
(PID.TID 0000.0001)  GGL90_READPARMS: opening data.ggl90
(PID.TID 0000.0001)  OPEN_COPY_DATA_FILE: opening file data.ggl90
(PID.TID 0000.0001) // =======================================================
(PID.TID 0000.0001) // Parameter file "data.ggl90"
(PID.TID 0000.0001) // =======================================================
(PID.TID 0000.0001) ># =====================================================================
(PID.TID 0000.0001) ># | Parameters for Gaspar et al. (1990)'s TKE vertical mixing scheme  |
(PID.TID 0000.0001) ># =====================================================================
(PID.TID 0000.0001) > &GGL90_PARM01
(PID.TID 0000.0001) ># GGL90taveFreq = 345600000.,
(PID.TID 0000.0001) ># GGL90dumpFreq = 86400.,
(PID.TID 0000.0001) ># GGL90writeState=.FALSE.,
(PID.TID 0000.0001) ># GGL90diffTKEh=3.e3,
(PID.TID 0000.0001) > GGL90alpha=30.,
(PID.TID 0000.0001) ># GGL90TKEFile = 'TKE_init.bin',
(PID.TID 0000.0001) > GGL90TKEmin  = 1.e-7,
(PID.TID 0000.0001) > GGL90TKEbottom = 1.e-6,
(PID.TID 0000.0001) > mxlMaxFlag =2,
(PID.TID 0000.0001) > mxlSurfFlag=.TRUE.,
(PID.TID 0000.0001) > &
(PID.TID 0000.0001) 
(PID.TID 0000.0001)  GGL90_READPARMS ; starts to read GGL90_PARM01
(PID.TID 0000.0001)  GGL90_READPARMS: read GGL90_PARM01 : OK
(PID.TID 0000.0001)  GGL90_READPARMS: finished reading data.ggl90
(PID.TID 0000.0001) // =======================================================
(PID.TID 0000.0001) // GGL90 configuration
(PID.TID 0000.0001) // =======================================================
(PID.TID 0000.0001) GGL90dumpFreq =   /* GGL90 state write out interval ( s ). */
(PID.TID 0000.0001)                 0.000000000000000E+00
(PID.TID 0000.0001)     ;
(PID.TID 0000.0001) GGL90taveFreq =   /* GGL90 averaging interval ( s ). */
(PID.TID 0000.0001)                 0.000000000000000E+00
(PID.TID 0000.0001)     ;
(PID.TID 0000.0001) GGL90mixingMAPS =   /* GGL90 IO flag. */
(PID.TID 0000.0001)                   F
(PID.TID 0000.0001)     ;
(PID.TID 0000.0001) GGL90writeState =   /* GGL90 IO flag. */
(PID.TID 0000.0001)                   F
(PID.TID 0000.0001)     ;
(PID.TID 0000.0001) GGL90ck =   /* GGL90 viscosity parameter. */
(PID.TID 0000.0001)                 1.000000000000000E-01
(PID.TID 0000.0001)     ;
(PID.TID 0000.0001) GGL90ceps =   /* GGL90 dissipation parameter. */
(PID.TID 0000.0001)                 7.000000000000000E-01
(PID.TID 0000.0001)     ;
(PID.TID 0000.0001) GGL90alpha =   /* GGL90 TKE diffusivity parameter. */
(PID.TID 0000.0001)                 3.000000000000000E+01
(PID.TID 0000.0001)     ;
(PID.TID 0000.0001) GGL90m2 =   /* GGL90 wind stress to vertical stress ratio. */
(PID.TID 0000.0001)                 3.750000000000000E+00
(PID.TID 0000.0001)     ;
(PID.TID 0000.0001) GGL90TKEmin =   /* GGL90 minimum kinetic energy ( m^2/s^2 ). */
(PID.TID 0000.0001)                 1.000000000000000E-07
(PID.TID 0000.0001)     ;
(PID.TID 0000.0001) GGL90TKEsurfMin =   /* GGL90 minimum surface kinetic energy ( m^2/s^2 ). */
(PID.TID 0000.0001)                 1.000000000000000E-04
(PID.TID 0000.0001)     ;
(PID.TID 0000.0001) GGL90TKEbottom =   /* GGL90 bottom kinetic energy ( m^2/s^2 ). */
(PID.TID 0000.0001)                 1.000000000000000E-06
(PID.TID 0000.0001)     ;
(PID.TID 0000.0001) GGL90viscMax =   /* GGL90 upper limit for viscosity ( m^2/s ). */
(PID.TID 0000.0001)                 1.000000000000000E+02
(PID.TID 0000.0001)     ;
(PID.TID 0000.0001) GGL90diffMax =   /* GGL90 upper limit for diffusivity ( m^2/s ). */
(PID.TID 0000.0001)                 1.000000000000000E+02
(PID.TID 0000.0001)     ;
(PID.TID 0000.0001) GGL90diffTKEh =   /* GGL90 horizontal diffusivity for TKE ( m^2/s ). */
(PID.TID 0000.0001)                 0.000000000000000E+00
(PID.TID 0000.0001)     ;
(PID.TID 0000.0001) GGL90mixingLengthMin =   /* GGL90 minimum mixing length ( m ). */
(PID.TID 0000.0001)                 1.000000000000000E-08
(PID.TID 0000.0001)     ;
(PID.TID 0000.0001) mxlMaxFlag =   /* Flag for limiting mixing-length method */
(PID.TID 0000.0001)                       2
(PID.TID 0000.0001)     ;
(PID.TID 0000.0001) mxlSurfFlag =   /* GGL90 flag for near surface mixing. */
(PID.TID 0000.0001)                   T
(PID.TID 0000.0001)     ;
(PID.TID 0000.0001) calcMeanVertShear = /* calc Mean of Vert.Shear (vs shear of Mean flow) */
(PID.TID 0000.0001)                   F
(PID.TID 0000.0001)     ;
(PID.TID 0000.0001) GGL90: GGL90TKEFile =
(PID.TID 0000.0001) GGL90writeState =   /* GGL90 Boundary condition flag. */
(PID.TID 0000.0001)                   T
(PID.TID 0000.0001)     ;
(PID.TID 0000.0001) // =======================================================
(PID.TID 0000.0001) // End of GGL90 config. summary
(PID.TID 0000.0001) // =======================================================
(PID.TID 0000.0001) 
(PID.TID 0000.0001)  GM_READPARMS: opening data.gmredi
(PID.TID 0000.0001)  OPEN_COPY_DATA_FILE: opening file data.gmredi
(PID.TID 0000.0001) // =======================================================
(PID.TID 0000.0001) // Parameter file "data.gmredi"
(PID.TID 0000.0001) // =======================================================
(PID.TID 0000.0001) ># GM+Redi package parameters:
(PID.TID 0000.0001) >#     GM_Small_Number  :: epsilon used in computing the slope
(PID.TID 0000.0001) >#     GM_slopeSqCutoff :: slope^2 cut-off value
(PID.TID 0000.0001) >
(PID.TID 0000.0001) >#-from MOM :
(PID.TID 0000.0001) ># GM_background_K: 	G & Mc.W  diffusion coefficient
(PID.TID 0000.0001) ># GM_maxSlope    :	max slope of isopycnals
(PID.TID 0000.0001) ># GM_Scrit       :	transition for scaling diffusion coefficient
(PID.TID 0000.0001) ># GM_Sd          :	half width scaling for diffusion coefficient
(PID.TID 0000.0001) ># GM_taper_scheme:	slope clipping or one of the tapering schemes
(PID.TID 0000.0001) ># GM_Kmin_horiz  :	horizontal diffusion minimum value
(PID.TID 0000.0001) >
(PID.TID 0000.0001) >#-Option parameters (needs to "define" options in GMREDI_OPTIONS.h")
(PID.TID 0000.0001) ># GM_isopycK     :	isopycnal diffusion coefficient (default=GM_background_K)
(PID.TID 0000.0001) ># GM_AdvForm     :	turn on GM Advective form       (default=Skew flux form)
(PID.TID 0000.0001) >
(PID.TID 0000.0001) > &GM_PARM01
(PID.TID 0000.0001) >  GM_Small_Number  = 1.D-20,
(PID.TID 0000.0001) >  GM_slopeSqCutoff = 1.D+08,
(PID.TID 0000.0001) >  GM_AdvForm         = .TRUE.,
(PID.TID 0000.0001) >  GM_isopycK         = 1.D+3,
(PID.TID 0000.0001) >  GM_background_K    = 1.D+3,
(PID.TID 0000.0001) >  GM_maxSlope        = 4.D-3,
(PID.TID 0000.0001) >  GM_taper_scheme    = 'stableGmAdjTap',
(PID.TID 0000.0001) >  GM_Kmin_horiz      = 100.,
(PID.TID 0000.0001) >  GM_Scrit           = 4.D-3,
(PID.TID 0000.0001) >  GM_Sd              = 1.D-3,
(PID.TID 0000.0001) >#
(PID.TID 0000.0001) >###  GM_Visbeck_alpha   = 1.5D-2,
(PID.TID 0000.0001) >###  GM_Visbeck_alpha   = 0.D0,
(PID.TID 0000.0001) >###  GM_Visbeck_length  = 2.D+5,
(PID.TID 0000.0001) >###  GM_Visbeck_depth   = 1.D+3,
(PID.TID 0000.0001) >###  GM_Visbeck_maxval_K= 2.5D+3,
(PID.TID 0000.0001) > &
(PID.TID 0000.0001) >
(PID.TID 0000.0001) >
(PID.TID 0000.0001) 
(PID.TID 0000.0001)  GM_READPARMS: finished reading data.gmredi
(PID.TID 0000.0001) 
(PID.TID 0000.0001)  SEAICE_READPARMS: opening data.seaice
(PID.TID 0000.0001)  OPEN_COPY_DATA_FILE: opening file data.seaice
(PID.TID 0000.0001) // =======================================================
(PID.TID 0000.0001) // Parameter file "data.seaice"
(PID.TID 0000.0001) // =======================================================
(PID.TID 0000.0001) ># SEAICE parameters
(PID.TID 0000.0001) > &SEAICE_PARM01
(PID.TID 0000.0001) > usePW79thermodynamics= .FALSE.,
(PID.TID 0000.0001) ># SEAICEuseDYNAMICS = .FALSE.,
(PID.TID 0000.0001) ># SEAICEupdateOceanStress=.FALSE.,
(PID.TID 0000.0001) ># SEAICEadvHeff  = .FALSE.,
(PID.TID 0000.0001) ># SEAICEadvArea  = .FALSE.,
(PID.TID 0000.0001) ># SEAICEadvSnow  = .FALSE.,
(PID.TID 0000.0001) ># SEAICEadvSalt  = .FALSE.,
(PID.TID 0000.0001) >#--
(PID.TID 0000.0001) > SEAICE_strength    = 2.6780e+04,
(PID.TID 0000.0001) > OCEAN_drag         = 8.1541e-04,
(PID.TID 0000.0001) ># SEAICE_waterDrag   = 5.3508,
(PID.TID 0000.0001) >#- waterDrag no longer includes rhoConst factor:
(PID.TID 0000.0001) ># SEAICE_waterDrag   = 5.16985507246376811E-3,
(PID.TID 0000.0001) >  SEAICE_waterDrag   = 5.169855072463768E-3,
(PID.TID 0000.0001) >#- old defaults
(PID.TID 0000.0001) >  SEAICEscaleSurfStress = .FALSE.,
(PID.TID 0000.0001) >  SEAICEaddSnowMass     = .FALSE.,
(PID.TID 0000.0001) >  SEAICE_useMultDimSnow = .FALSE.,
(PID.TID 0000.0001) >  SEAICE_Olx = 0,
(PID.TID 0000.0001) >  SEAICE_Oly = 0,
(PID.TID 0000.0001) >  SEAICEetaZmethod = 0,
(PID.TID 0000.0001) >  SEAICE_drag = 2.E-3,
(PID.TID 0000.0001) >#--
(PID.TID 0000.0001) > SEAICE_no_Slip     = .FALSE.,
(PID.TID 0000.0001) > LSR_ERROR          = 1.E-4,
(PID.TID 0000.0001) > SEAICElinearIterMax=  500,
(PID.TID 0000.0001) >#LSR_mixIniGuess    = 1,
(PID.TID 0000.0001) > SEAICEadvScheme    = 77,
(PID.TID 0000.0001) > SEAICEwriteState   = .TRUE.,
(PID.TID 0000.0001) >#SEAICE_monFreq = 1800.,
(PID.TID 0000.0001) ># AreaFile  = 'const100.bin',
(PID.TID 0000.0001) ># HeffFile  = 'const+20.bin',
(PID.TID 0000.0001) ># HsnowFile = 'const_00.bin',
(PID.TID 0000.0001) > &
(PID.TID 0000.0001) >
(PID.TID 0000.0001) > &SEAICE_PARM03
(PID.TID 0000.0001) > &
(PID.TID 0000.0001) 
(PID.TID 0000.0001)  SEAICE_READPARMS: finished reading data.seaice
(PID.TID 0000.0001) SALT_PLUME_READPARMS: opening data.salt_plume
(PID.TID 0000.0001)  OPEN_COPY_DATA_FILE: opening file data.salt_plume
(PID.TID 0000.0001) // =======================================================
(PID.TID 0000.0001) // Parameter file "data.salt_plume"
(PID.TID 0000.0001) // =======================================================
(PID.TID 0000.0001) > &SALT_PLUME_PARM01
(PID.TID 0000.0001) > SPsalFRAC= 0.5D0,
(PID.TID 0000.0001) > &
(PID.TID 0000.0001) 
(PID.TID 0000.0001) SALT_PLUME_READPARMS: finished reading data.salt_plume
(PID.TID 0000.0001) OPTIM_READPARMS: opening data.optim
(PID.TID 0000.0001)  OPEN_COPY_DATA_FILE: opening file data.optim
(PID.TID 0000.0001) // =======================================================
(PID.TID 0000.0001) // Parameter file "data.optim"
(PID.TID 0000.0001) // =======================================================
(PID.TID 0000.0001) >#
(PID.TID 0000.0001) ># ********************************
(PID.TID 0000.0001) ># Off-line optimization parameters
(PID.TID 0000.0001) ># ********************************
(PID.TID 0000.0001) > &OPTIM
(PID.TID 0000.0001) > optimcycle=12,
(PID.TID 0000.0001) > &
(PID.TID 0000.0001) 
(PID.TID 0000.0001) OPTIM_READPARMS: finished reading data.optim
(PID.TID 0000.0001) CTRL_READPARMS: opening data.ctrl
(PID.TID 0000.0001)  OPEN_COPY_DATA_FILE: opening file data.ctrl
(PID.TID 0000.0001) // =======================================================
(PID.TID 0000.0001) // Parameter file "data.ctrl"
(PID.TID 0000.0001) // =======================================================
(PID.TID 0000.0001) ># *********************
(PID.TID 0000.0001) ># ECCO control variables
(PID.TID 0000.0001) ># *********************
(PID.TID 0000.0001) > &ctrl_nml
(PID.TID 0000.0001) > doSinglePrecTapelev=.TRUE.,
(PID.TID 0000.0001) >#to start from given xx*00.data files
(PID.TID 0000.0001) >  doinitxx = .FALSE.,
(PID.TID 0000.0001) >  doMainUnpack = .FALSE.,
(PID.TID 0000.0001) >#to start from given ecco_ctrl... files
(PID.TID 0000.0001) ># doinitxx = .FALSE.,
(PID.TID 0000.0001) > &
(PID.TID 0000.0001) >#
(PID.TID 0000.0001) ># *********************
(PID.TID 0000.0001) ># names for ctrl_pack/unpack
(PID.TID 0000.0001) ># *********************
(PID.TID 0000.0001) > &ctrl_packnames
(PID.TID 0000.0001) > &
(PID.TID 0000.0001) >#
(PID.TID 0000.0001) ># *********************
(PID.TID 0000.0001) ># names for CTRL_GENARR2D,3D CTRL_GENTIM2D
(PID.TID 0000.0001) ># *********************
(PID.TID 0000.0001) > &CTRL_NML_GENARR
(PID.TID 0000.0001) >#
(PID.TID 0000.0001) > xx_genarr3d_weight(1) = 'wt_ones.data',
(PID.TID 0000.0001) > xx_genarr3d_file(1)='xx_kapgm',
(PID.TID 0000.0001) > mult_genarr3d(1) = 0.,
(PID.TID 0000.0001) >#
(PID.TID 0000.0001) > xx_genarr3d_weight(2) = 'wt_ones.data',
(PID.TID 0000.0001) > xx_genarr3d_file(2)='xx_kapredi',
(PID.TID 0000.0001) > mult_genarr3d(2) = 0.,
(PID.TID 0000.0001) >#
(PID.TID 0000.0001) > xx_genarr3d_weight(3) = 'wt_ones.data',
(PID.TID 0000.0001) > xx_genarr3d_file(3)='xx_diffkr',
(PID.TID 0000.0001) > mult_genarr3d(3) = 0.,
(PID.TID 0000.0001) >#
(PID.TID 0000.0001) > &
(PID.TID 0000.0001) 
(PID.TID 0000.0001) CTRL_READPARMS: finished reading data.ctrl
(PID.TID 0000.0001)  DIAGNOSTICS_READPARMS: opening data.diagnostics
(PID.TID 0000.0001)  OPEN_COPY_DATA_FILE: opening file data.diagnostics
(PID.TID 0000.0001) // =======================================================
(PID.TID 0000.0001) // Parameter file "data.diagnostics"
(PID.TID 0000.0001) // =======================================================
(PID.TID 0000.0001) ># Diagnostic Package Choices
(PID.TID 0000.0001) >#-----------------
(PID.TID 0000.0001) ># for each output-stream:
(PID.TID 0000.0001) >#  filename(n) : prefix of the output file name (only 8.c long) for outp.stream n
(PID.TID 0000.0001) >#  frequency(n):< 0 : write snap-shot output every multiple of |frequency| (iter)
(PID.TID 0000.0001) >#               > 0 : write time-average output every multiple of frequency (iter)
(PID.TID 0000.0001) >#  levels(:,n) : list of levels to write to file (Notes: declared as REAL)
(PID.TID 0000.0001) >#                 when this entry is missing, select all common levels of this list
(PID.TID 0000.0001) >#  fields(:,n) : list of diagnostics fields (8.c) (see "available_diagnostics" file
(PID.TID 0000.0001) >#                 for the list of all available diag. in this particular config)
(PID.TID 0000.0001) >#--------------------------------------------------------------------
(PID.TID 0000.0001) >#
(PID.TID 0000.0001) > &diagnostics_list
(PID.TID 0000.0001) >#
(PID.TID 0000.0001) >   dumpatlast = .TRUE.,
(PID.TID 0000.0001) >   diagMdsDir = 'diags',
(PID.TID 0000.0001) >#---
(PID.TID 0000.0001) >  frequency(1) = 2635200.0,
(PID.TID 0000.0001) >   fields(1:9,1) = 'ETAN    ',
(PID.TID 0000.0001) >#stuff that is not quite state variables (and may not be quite
(PID.TID 0000.0001) >#synchroneous) but are added here to reduce number of files
(PID.TID 0000.0001) >                 'DETADT2 ','PHIBOT  ',
(PID.TID 0000.0001) >                 'MXLDEPTH','oceSPDep',
(PID.TID 0000.0001) >                 'oceQnet ','oceFWflx',
(PID.TID 0000.0001) >                 'oceTAUX ','oceTAUY ',
(PID.TID 0000.0001) >   filename(1) = 'state_2d_set1',
(PID.TID 0000.0001) >#---
(PID.TID 0000.0001) >  frequency(2) = 2635200.0,
(PID.TID 0000.0001) >   fields(1:3,2) = 'THETA   ','SALT    ',
(PID.TID 0000.0001) >#stuff that is not quite state variables (and may not be quite
(PID.TID 0000.0001) >#synchroneous) but are added here to reduce file number
(PID.TID 0000.0001) >                 'DRHODR  ',
(PID.TID 0000.0001) >#                'KPPviscA','KPPdiffT','KPPdiffTS',
(PID.TID 0000.0001) >#                'GGL90TKE','GGL90Lmx','GGL90Prl',
(PID.TID 0000.0001) >#                'GGL90ArU','GGL90ArV','GGL90Kr ',
(PID.TID 0000.0001) >   filename(2) = 'state_3d_set1',
(PID.TID 0000.0001) >#---
(PID.TID 0000.0001) >  frequency(3) = 2635200.0,
(PID.TID 0000.0001) >   fields(1:5,3) = 'UVELMASS','VVELMASS','WVELMASS',
(PID.TID 0000.0001) >                 'GM_PsiX ','GM_PsiY ',
(PID.TID 0000.0001) >#uvel is approximately uvelmass divided by initial hfac, so we dont output the former
(PID.TID 0000.0001) >#                'UVEL    ','VVEL    ','WVEL     ',
(PID.TID 0000.0001) >#full 3D temperature fluxes : 'DFxE_TH ','DFyE_TH ','DFrE_TH ','DFrI_TH ','ADVx_TH ','ADVy_TH ','ADVr_TH ',
(PID.TID 0000.0001) >#but for present computations I only need the vertically integrated horizontal components (see trsp_3d_set2)
(PID.TID 0000.0001) >   filename(3) = 'trsp_3d_set1',
(PID.TID 0000.0001) >#---
(PID.TID 0000.0001) >  frequency(4) = 2635200.0,
(PID.TID 0000.0001) >   fields(1:8,4) = 'DFxE_TH ','DFyE_TH ','ADVx_TH ','ADVy_TH ',
(PID.TID 0000.0001) >                 'DFxE_SLT','DFyE_SLT','ADVx_SLT','ADVy_SLT',
(PID.TID 0000.0001) >   filename(4) = 'trsp_3d_set2',
(PID.TID 0000.0001) >#vertically integrate fields we only use to compute vertically integr.
(PID.TID 0000.0001) >#meridional transports (also omit vertical transports, both to save space)
(PID.TID 0000.0001) >#---
(PID.TID 0000.0001) >  frequency(5) = -2635200.0,
(PID.TID 0000.0001) >   fields(1:2,5) = 'ETAN    ',
(PID.TID 0000.0001) >                   'PHIBOT  ',
(PID.TID 0000.0001) >#  filename(5) = 'budg2d_snap_set1',
(PID.TID 0000.0001) >   timePhase(5)= 0.,
(PID.TID 0000.0001) >   fileFlags(5) = 'D       ',
(PID.TID 0000.0001) >#---
(PID.TID 0000.0001) >  frequency(6) = -2635200.0,
(PID.TID 0000.0001) >   fields(1:2,6) = 'THETA   ','SALT    ',
(PID.TID 0000.0001) >#  filename(6) = 'budg2d_snap_set2',
(PID.TID 0000.0001) >   timePhase(6)= 0.,
(PID.TID 0000.0001) >   fileFlags(6) = 'DI      ',
(PID.TID 0000.0001) >#---
(PID.TID 0000.0001) >  frequency(7) = 2635200.0,
(PID.TID 0000.0001) >   fields(1:4,7) = 'oceFWflx','TFLUX   ',
(PID.TID 0000.0001) >                   'SFLUX   ','oceQsw  ',
(PID.TID 0000.0001) >#  filename(7) = 'budg2d_zflux_set1',
(PID.TID 0000.0001) >   fileFlags(7) = 'D       ',
(PID.TID 0000.0001) >#---
(PID.TID 0000.0001) >  frequency(8) = 2635200.0,
(PID.TID 0000.0001) >   fields(1:13,8) ='UVELMASS','VVELMASS',
(PID.TID 0000.0001) >                 'ADVx_TH ','ADVy_TH ','DFxE_TH ','DFyE_TH ',
(PID.TID 0000.0001) >                 'ADVx_SLT','ADVy_SLT','DFxE_SLT','DFyE_SLT',
(PID.TID 0000.0001) >#the following are not transports but tendencies
(PID.TID 0000.0001) >                 'oceSPtnd','AB_gT   ','AB_gS   ',
(PID.TID 0000.0001) >#  filename(8) = 'budg2d_hflux_set2',
(PID.TID 0000.0001) >   fileFlags(8) = 'DI      ',
(PID.TID 0000.0001) >#---
(PID.TID 0000.0001) ># this one is important because it activates the vertical advection diags
(PID.TID 0000.0001) >  frequency(9) = 2635200.0,
(PID.TID 0000.0001) >   fields(1:7,9) = 'ADVr_TH ','DFrE_TH ','DFrI_TH ',
(PID.TID 0000.0001) >                  'ADVr_SLT','DFrE_SLT','DFrI_SLT',
(PID.TID 0000.0001) >                  'WVELMASS',
(PID.TID 0000.0001) >#  filename(9) = 'budg2d_zflux_set3_11',
(PID.TID 0000.0001) >   levels(1, 9)= 11.,
(PID.TID 0000.0001) >   fileFlags(9) = 'D       ',
(PID.TID 0000.0001) >#---
(PID.TID 0000.0001) >  frequency(10) = 2635200.0,
(PID.TID 0000.0001) >   fields(1:6,10) ='SRELAX  ','TRELAX  ','WTHMASS ','WSLTMASS',
(PID.TID 0000.0001) >                 'oceSflux','oceQnet ',
(PID.TID 0000.0001) >#  filename(10) = 'budg2d_zflux_set2',
(PID.TID 0000.0001) >   fileFlags(10) = 'D       ',
(PID.TID 0000.0001) >#---
(PID.TID 0000.0001) >  frequency(11) = 2635200.0,
(PID.TID 0000.0001) >   fields(1:13,11) ='UVELMASS','VVELMASS',
(PID.TID 0000.0001) >                 'ADVx_TH ','ADVy_TH ','DFxE_TH ','DFyE_TH ',
(PID.TID 0000.0001) >                 'ADVx_SLT','ADVy_SLT','DFxE_SLT','DFyE_SLT',
(PID.TID 0000.0001) >                 'oceSPtnd','AB_gT   ','AB_gS   ',
(PID.TID 0000.0001) >#  filename(11) = 'budg2d_hflux_set3_11',
(PID.TID 0000.0001) >   levels(1:40,11) = 11.,12.,13.,14.,15.,16.,17.,18.,19.,20.,
(PID.TID 0000.0001) >                     21.,22.,23.,24.,25.,26.,27.,28.,29.,30.,
(PID.TID 0000.0001) >                     31.,32.,33.,34.,35.,36.,37.,38.,39.,40.,
(PID.TID 0000.0001) >                     41.,42.,43.,44.,45.,46.,47.,48.,49.,50.,
(PID.TID 0000.0001) >   fileFlags(11) = 'DI      ',
(PID.TID 0000.0001) >#---
(PID.TID 0000.0001) >  frequency(12) = -2635200.0,
(PID.TID 0000.0001) >   fields(1:2,12) = 'THETA   ','SALT    ',
(PID.TID 0000.0001) >#  filename(12) = 'budg2d_snap_set3_11',
(PID.TID 0000.0001) >   timePhase(12)= 0.,
(PID.TID 0000.0001) >   levels(1:40,12) = 11.,12.,13.,14.,15.,16.,17.,18.,19.,20.,
(PID.TID 0000.0001) >                     21.,22.,23.,24.,25.,26.,27.,28.,29.,30.,
(PID.TID 0000.0001) >                     31.,32.,33.,34.,35.,36.,37.,38.,39.,40.,
(PID.TID 0000.0001) >                     41.,42.,43.,44.,45.,46.,47.,48.,49.,50.,
(PID.TID 0000.0001) >   fileFlags(12) = 'DI      ',
(PID.TID 0000.0001) >#---
(PID.TID 0000.0001) >  frequency(13) = 2635200.0,
(PID.TID 0000.0001) >   fields(1:8,13) = 'DFxE_TH ','DFyE_TH ','ADVx_TH ','ADVy_TH ',
(PID.TID 0000.0001) >                 'DFxE_SLT','DFyE_SLT','ADVx_SLT','ADVy_SLT',
(PID.TID 0000.0001) >#  filename(13) = 'trsp_2d_set1',
(PID.TID 0000.0001) >#vertically integrate fields we only use to compute vertically integr.
(PID.TID 0000.0001) >#meridional transports (also omit vertical transports, both to save space)
(PID.TID 0000.0001) >   fileFlags(13) = ' I      ',
(PID.TID 0000.0001) >#---
(PID.TID 0000.0001) >  frequency(14) = 2635200.0,
(PID.TID 0000.0001) >   fields(1:3,14) = 'RHOAnoma','PHIHYD  ','oceSPtnd',
(PID.TID 0000.0001) >#  filename(14) = 'state_3d_set2',
(PID.TID 0000.0001) >#---
(PID.TID 0000.0001) >  frequency(15) = 2635200.0,
(PID.TID 0000.0001) >   fields(1:7,15) = 'ADVr_TH ','DFrE_TH ','DFrI_TH ',
(PID.TID 0000.0001) >        'ADVr_SLT','DFrE_SLT','DFrI_SLT','WVELMASS',
(PID.TID 0000.0001) >#  filename(15) = 'trsp_3d_set3',
(PID.TID 0000.0001) >#---
(PID.TID 0000.0001) >  frequency(16) = 2635200.0,
(PID.TID 0000.0001) >   fields(1:4,16) = 'TFLUX   ','SFLUX   ',
(PID.TID 0000.0001) >        'oceQsw  ','oceSPflx',
(PID.TID 0000.0001) >#  filename(16) = 'state_2d_set2',
(PID.TID 0000.0001) >#---
(PID.TID 0000.0001) > &
(PID.TID 0000.0001) >#
(PID.TID 0000.0001) >#
(PID.TID 0000.0001) ># Parameter for Diagnostics of per level statistics:
(PID.TID 0000.0001) >#-----------------
(PID.TID 0000.0001) ># for each output-stream:
(PID.TID 0000.0001) >#  stat_fname(n) : prefix of the output file name (only 8.c long) for outp.stream n
(PID.TID 0000.0001) >#  stat_freq(n):< 0 : write snap-shot output every |stat_freq| seconds
(PID.TID 0000.0001) >#               > 0 : write time-average output every stat_freq seconds
(PID.TID 0000.0001) >#  stat_phase(n)    : write at time = stat_phase + multiple of |stat_freq|
(PID.TID 0000.0001) >#  stat_region(:,n) : list of "regions" (default: 1 region only=global)
(PID.TID 0000.0001) >#  stat_fields(:,n) : list of diagnostics fields (8.c) (see "available_diagnostics.log"
(PID.TID 0000.0001) >#                 file for the list of all available diag. in this particular config)
(PID.TID 0000.0001) >#-----------------
(PID.TID 0000.0001) > &DIAG_STATIS_PARMS
(PID.TID 0000.0001) ># diagSt_regMaskFile='basin_masks_eccollc_90x50.bin',
(PID.TID 0000.0001) ># nSetRegMskFile=1,
(PID.TID 0000.0001) ># set_regMask(1)= 1,  1,  1,  1,  1,  1,  1,  1,  1,
(PID.TID 0000.0001) >#                 1,  1,  1,  1,  1,  1,  1,  1
(PID.TID 0000.0001) ># val_regMask(1)= 1., 2., 3., 4., 5., 6., 7., 8., 9.,
(PID.TID 0000.0001) >#                10.,11.,12.,13.,14.,15.,16.,17.
(PID.TID 0000.0001) >##---
(PID.TID 0000.0001) ># stat_fields(1,1)= 'ETAN    ','ETANSQ  ','DETADT2 ',
(PID.TID 0000.0001) >#                   'UVEL    ','VVEL    ','WVEL    ',
(PID.TID 0000.0001) >#                   'THETA   ','SALT    ',
(PID.TID 0000.0001) >#    stat_fname(1)= 'dynStDiag',
(PID.TID 0000.0001) >#     stat_freq(1)= 3153600.,
(PID.TID 0000.0001) ># stat_region(1,1)=  1, 2, 3, 4, 5, 6, 7, 8, 9,
(PID.TID 0000.0001) >#                   10,11,12,13,14,15,16,17
(PID.TID 0000.0001) >##---
(PID.TID 0000.0001) ># stat_fields(1,2)= 'oceTAUX ','oceTAUY ',
(PID.TID 0000.0001) >#                   'surForcT','surForcS','TFLUX   ','SFLUX   ',
(PID.TID 0000.0001) >#                   'oceQnet ','oceSflux','oceFWflx',
(PID.TID 0000.0001) >#    stat_fname(2)= 'surfStDiag',
(PID.TID 0000.0001) >#     stat_freq(2)= 3153600.,
(PID.TID 0000.0001) ># stat_region(1,2)=  1, 2, 3, 4, 5, 6, 7, 8, 9,
(PID.TID 0000.0001) >#                   10,11,12,13,14,15,16,17
(PID.TID 0000.0001) > &
(PID.TID 0000.0001) 
(PID.TID 0000.0001) S/R DIAGNOSTICS_READPARMS, read namelist "diagnostics_list": start
(PID.TID 0000.0001) S/R DIAGNOSTICS_READPARMS, read namelist "diagnostics_list": OK
(PID.TID 0000.0001) S/R DIAGNOSTICS_READPARMS, read namelist "DIAG_STATIS_PARMS": start
(PID.TID 0000.0001) S/R DIAGNOSTICS_READPARMS, read namelist "DIAG_STATIS_PARMS": OK
(PID.TID 0000.0001)  DIAGNOSTICS_READPARMS: global parameter summary:
(PID.TID 0000.0001)  dumpAtLast = /* always write time-ave diags at the end */
(PID.TID 0000.0001)                   T
(PID.TID 0000.0001)     ;
(PID.TID 0000.0001)  diag_mnc =   /* write NetCDF output files */
(PID.TID 0000.0001)                   F
(PID.TID 0000.0001)     ;
(PID.TID 0000.0001)  diagMdsDir = /* directory for mds diagnostics output */
(PID.TID 0000.0001)               'diags'
(PID.TID 0000.0001)     ;
(PID.TID 0000.0001)  diagMdsDirCreate = /* call mkdir to create diagMdsDir */
(PID.TID 0000.0001)                   T
(PID.TID 0000.0001)     ;
(PID.TID 0000.0001)  useMissingValue = /* put MissingValue where mask = 0 */
(PID.TID 0000.0001)                   F
(PID.TID 0000.0001)     ;
(PID.TID 0000.0001)  diagCG_maxIters = /* max number of iters in diag_cg2d */
(PID.TID 0000.0001)                     300
(PID.TID 0000.0001)     ;
(PID.TID 0000.0001)  diagCG_resTarget = /* residual target for diag_cg2d */
(PID.TID 0000.0001)                 1.000000000000000E-07
(PID.TID 0000.0001)     ;
(PID.TID 0000.0001)  diagCG_pcOffDFac = /* preconditioner off-diagonal factor */
(PID.TID 0000.0001)                 9.611687812379854E-01
(PID.TID 0000.0001)     ;
(PID.TID 0000.0001) -----------------------------------------------------
(PID.TID 0000.0001)  DIAGNOSTICS_READPARMS: active diagnostics summary:
(PID.TID 0000.0001) -----------------------------------------------------
(PID.TID 0000.0001) Creating Output Stream: state_2d_set1
(PID.TID 0000.0001) Output Frequency:    2635200.000000 ; Phase:           0.000000
(PID.TID 0000.0001)  Averaging Freq.:    2635200.000000 , Phase:           0.000000 , Cycle:   1
(PID.TID 0000.0001)  missing value: -9.990000000000E+02
(PID.TID 0000.0001)  Levels:    will be set later
(PID.TID 0000.0001)  Fields:    ETAN     DETADT2  PHIBOT   MXLDEPTH oceSPDep oceQnet  oceFWflx oceTAUX  oceTAUY
(PID.TID 0000.0001) Creating Output Stream: state_3d_set1
(PID.TID 0000.0001) Output Frequency:    2635200.000000 ; Phase:           0.000000
(PID.TID 0000.0001)  Averaging Freq.:    2635200.000000 , Phase:           0.000000 , Cycle:   1
(PID.TID 0000.0001)  missing value: -9.990000000000E+02
(PID.TID 0000.0001)  Levels:    will be set later
(PID.TID 0000.0001)  Fields:    THETA    SALT     DRHODR
(PID.TID 0000.0001) Creating Output Stream: trsp_3d_set1
(PID.TID 0000.0001) Output Frequency:    2635200.000000 ; Phase:           0.000000
(PID.TID 0000.0001)  Averaging Freq.:    2635200.000000 , Phase:           0.000000 , Cycle:   1
(PID.TID 0000.0001)  missing value: -9.990000000000E+02
(PID.TID 0000.0001)  Levels:    will be set later
(PID.TID 0000.0001)  Fields:    UVELMASS VVELMASS WVELMASS GM_PsiX  GM_PsiY
(PID.TID 0000.0001) Creating Output Stream: trsp_3d_set2
(PID.TID 0000.0001) Output Frequency:    2635200.000000 ; Phase:           0.000000
(PID.TID 0000.0001)  Averaging Freq.:    2635200.000000 , Phase:           0.000000 , Cycle:   1
(PID.TID 0000.0001)  missing value: -9.990000000000E+02
(PID.TID 0000.0001)  Levels:    will be set later
(PID.TID 0000.0001)  Fields:    DFxE_TH  DFyE_TH  ADVx_TH  ADVy_TH  DFxE_SLT DFyE_SLT ADVx_SLT ADVy_SLT
(PID.TID 0000.0001) -----------------------------------------------------
(PID.TID 0000.0001)  DIAGNOSTICS_READPARMS: statistics diags. summary:
(PID.TID 0000.0001) -----------------------------------------------------
(PID.TID 0000.0001) 
(PID.TID 0000.0001) SET_PARMS: done
 ==> SYSTEM CALL (from DIAGNOSTICS_INI_IO): > mkdir -p diags <
(PID.TID 0000.0001) 
(PID.TID 0000.0001) Enter INI_VERTICAL_GRID: setInterFDr=    T ; setCenterDr=    F
(PID.TID 0000.0001) tile:   4 ; Read from file tile001.mitgrid
(PID.TID 0000.0001)   => xC yC dxF dyF rA xG yG dxV dyU rAz dxC dyC rAw rAs dxG dyG
(PID.TID 0000.0001) %MON XC_max                       =   1.7997758946678E+02
(PID.TID 0000.0001) %MON XC_min                       =  -1.7998895680928E+02
(PID.TID 0000.0001) %MON XC_mean                      =  -6.8997670631350E+00
(PID.TID 0000.0001) %MON XC_sd                        =   1.0548127462941E+02
(PID.TID 0000.0001) %MON XG_max                       =   1.8000000000000E+02
(PID.TID 0000.0001) %MON XG_min                       =  -1.7999919444240E+02
(PID.TID 0000.0001) %MON XG_mean                      =  -6.3521159278861E+00
(PID.TID 0000.0001) %MON XG_sd                        =   1.0549598176576E+02
(PID.TID 0000.0001) %MON DXC_max                      =   1.1117680031365E+05
(PID.TID 0000.0001) %MON DXC_min                      =   1.3362789164732E+04
(PID.TID 0000.0001) %MON DXC_mean                     =   7.1345115143606E+04
(PID.TID 0000.0001) %MON DXC_sd                       =   2.6107013089865E+04
(PID.TID 0000.0001) %MON DXF_max                      =   1.1117680031365E+05
(PID.TID 0000.0001) %MON DXF_min                      =   1.3491575949394E+04
(PID.TID 0000.0001) %MON DXF_mean                     =   7.1334806791260E+04
(PID.TID 0000.0001) %MON DXF_sd                       =   2.6121349328995E+04
(PID.TID 0000.0001) %MON DXG_max                      =   1.1117747335204E+05
(PID.TID 0000.0001) %MON DXG_min                      =   1.0930409249570E+04
(PID.TID 0000.0001) %MON DXG_mean                     =   7.1313583950284E+04
(PID.TID 0000.0001) %MON DXG_sd                       =   2.6131714747840E+04
(PID.TID 0000.0001) %MON DXV_max                      =   1.1117747335204E+05
(PID.TID 0000.0001) %MON DXV_min                      =   9.4742518926426E+03
(PID.TID 0000.0001) %MON DXV_mean                     =   7.1323777998314E+04
(PID.TID 0000.0001) %MON DXV_sd                       =   2.6117603792432E+04
(PID.TID 0000.0001) %MON YC_max                       =   8.9739397429324E+01
(PID.TID 0000.0001) %MON YC_min                       =  -8.1637173529390E+01
(PID.TID 0000.0001) %MON YC_mean                      =  -5.9338515025079E-01
(PID.TID 0000.0001) %MON YC_sd                        =   5.1058908630085E+01
(PID.TID 0000.0001) %MON YG_max                       =   9.0000000000000E+01
(PID.TID 0000.0001) %MON YG_min                       =  -8.1805478609906E+01
(PID.TID 0000.0001) %MON YG_mean                      =  -5.7357831765458E-01
(PID.TID 0000.0001) %MON YG_sd                        =   5.1060174609345E+01
(PID.TID 0000.0001) %MON DYC_max                      =   1.1117680031365E+05
(PID.TID 0000.0001) %MON DYC_min                      =   1.3362789164732E+04
(PID.TID 0000.0001) %MON DYC_mean                     =   7.0982792089666E+04
(PID.TID 0000.0001) %MON DYC_sd                       =   2.6607387075348E+04
(PID.TID 0000.0001) %MON DYF_max                      =   1.1117680031365E+05
(PID.TID 0000.0001) %MON DYF_min                      =   1.3491575949394E+04
(PID.TID 0000.0001) %MON DYF_mean                     =   7.1000127494934E+04
(PID.TID 0000.0001) %MON DYF_sd                       =   2.6603606017547E+04
(PID.TID 0000.0001) %MON DYG_max                      =   1.1117747335204E+05
(PID.TID 0000.0001) %MON DYG_min                      =   1.0930409249570E+04
(PID.TID 0000.0001) %MON DYG_mean                     =   7.1022116512585E+04
(PID.TID 0000.0001) %MON DYG_sd                       =   2.6571715830406E+04
(PID.TID 0000.0001) %MON DYU_max                      =   1.1117747335204E+05
(PID.TID 0000.0001) %MON DYU_min                      =   9.4742518926426E+03
(PID.TID 0000.0001) %MON DYU_mean                     =   7.1004694583927E+04
(PID.TID 0000.0001) %MON DYU_sd                       =   2.6575655787476E+04
(PID.TID 0000.0001) %MON RA_max                       =   1.1896090857160E+10
(PID.TID 0000.0001) %MON RA_min                       =   2.1263387742345E+08
(PID.TID 0000.0001) %MON RA_mean                      =   5.6344293572480E+09
(PID.TID 0000.0001) %MON RA_sd                        =   3.5929461176606E+09
(PID.TID 0000.0001) %MON RAW_max                      =   1.1896090856781E+10
(PID.TID 0000.0001) %MON RAW_min                      =   1.7369571508711E+08
(PID.TID 0000.0001) %MON RAW_mean                     =   5.6355850434318E+09
(PID.TID 0000.0001) %MON RAW_sd                       =   3.5915487677190E+09
(PID.TID 0000.0001) %MON RAS_max                      =   1.1896090856781E+10
(PID.TID 0000.0001) %MON RAS_min                      =   1.7369571508711E+08
(PID.TID 0000.0001) %MON RAS_mean                     =   5.6320332286162E+09
(PID.TID 0000.0001) %MON RAS_sd                       =   3.5937184228135E+09
(PID.TID 0000.0001) %MON RAZ_max                      =   1.1891903479271E+10
(PID.TID 0000.0001) %MON RAZ_min                      =   1.0413402423292E+08
(PID.TID 0000.0001) %MON RAZ_mean                     =   5.6331824674695E+09
(PID.TID 0000.0001) %MON RAZ_sd                       =   3.5923307220197E+09
(PID.TID 0000.0001) %MON AngleCS_max                  =   1.0000000000000E+00
(PID.TID 0000.0001) %MON AngleCS_min                  =  -9.9996641938864E-01
(PID.TID 0000.0001) %MON AngleCS_mean                 =   4.0572930529500E-01
(PID.TID 0000.0001) %MON AngleCS_sd                   =   5.3874397836718E-01
(PID.TID 0000.0001) %MON AngleSN_max                  =   9.9996641938864E-01
(PID.TID 0000.0001) %MON AngleSN_min                  =  -1.0000000000000E+00
(PID.TID 0000.0001) %MON AngleSN_mean                 =  -4.9986154624599E-01
(PID.TID 0000.0001) %MON AngleSN_sd                   =   5.4339404779819E-01
(PID.TID 0000.0001) GAD_INIT_FIXED: GAD_OlMinSize=  2  0  2
(PID.TID 0000.0001) 
(PID.TID 0000.0001) // ===================================
(PID.TID 0000.0001) // GAD parameters :
(PID.TID 0000.0001) // ===================================
(PID.TID 0000.0001) tempAdvScheme =   /* Temp. Horiz.Advection scheme selector */
(PID.TID 0000.0001)                      30
(PID.TID 0000.0001)     ;
(PID.TID 0000.0001) tempVertAdvScheme =   /* Temp. Vert. Advection scheme selector */
(PID.TID 0000.0001)                       3
(PID.TID 0000.0001)     ;
(PID.TID 0000.0001) tempMultiDimAdvec =   /* use Muti-Dim Advec method for Temp */
(PID.TID 0000.0001)                   T
(PID.TID 0000.0001)     ;
(PID.TID 0000.0001) tempSOM_Advection = /* use 2nd Order Moment Advection for Temp */
(PID.TID 0000.0001)                   F
(PID.TID 0000.0001)     ;
(PID.TID 0000.0001) AdamsBashforthGt = /* apply Adams-Bashforth extrapolation on Gt */
(PID.TID 0000.0001)                   F
(PID.TID 0000.0001)     ;
(PID.TID 0000.0001) AdamsBashforth_T = /* apply Adams-Bashforth extrapolation on Temp */
(PID.TID 0000.0001)                   F
(PID.TID 0000.0001)     ;
(PID.TID 0000.0001) saltAdvScheme =   /* Salt. Horiz.advection scheme selector */
(PID.TID 0000.0001)                      30
(PID.TID 0000.0001)     ;
(PID.TID 0000.0001) saltVertAdvScheme =   /* Salt. Vert. Advection scheme selector */
(PID.TID 0000.0001)                       3
(PID.TID 0000.0001)     ;
(PID.TID 0000.0001) saltMultiDimAdvec =   /* use Muti-Dim Advec method for Salt */
(PID.TID 0000.0001)                   T
(PID.TID 0000.0001)     ;
(PID.TID 0000.0001) saltSOM_Advection = /* use 2nd Order Moment Advection for Salt */
(PID.TID 0000.0001)                   F
(PID.TID 0000.0001)     ;
(PID.TID 0000.0001) AdamsBashforthGs = /* apply Adams-Bashforth extrapolation on Gs */
(PID.TID 0000.0001)                   F
(PID.TID 0000.0001)     ;
(PID.TID 0000.0001) AdamsBashforth_S = /* apply Adams-Bashforth extrapolation on Salt */
(PID.TID 0000.0001)                   F
(PID.TID 0000.0001)     ;
(PID.TID 0000.0001) // ===================================
(PID.TID 0000.0001) SEAICE_INIT_FIXED: Computing  5 thickness category limits with
(PID.TID 0000.0001) Hlimit_c1  = /* ITD bin parameter */
(PID.TID 0000.0001)                 3.000000000000000E+00
(PID.TID 0000.0001)     ;
(PID.TID 0000.0001) Hlimit_c2  = /* ITD bin parameter */
(PID.TID 0000.0001)                 1.500000000000000E+01
(PID.TID 0000.0001)     ;
(PID.TID 0000.0001) Hlimit_c3  = /* ITD bin parameter */
(PID.TID 0000.0001)                 3.000000000000000E+00
(PID.TID 0000.0001)     ;
(PID.TID 0000.0001) 
(PID.TID 0000.0001) // =======================================================
(PID.TID 0000.0001) // Seaice configuration (SEAICE_PARM01) >>> START <<<
(PID.TID 0000.0001) // =======================================================
(PID.TID 0000.0001) 
(PID.TID 0000.0001)    Seaice time stepping configuration   > START <
(PID.TID 0000.0001)    ----------------------------------------------
(PID.TID 0000.0001) SEAICE_deltaTtherm= /* thermodynamic timestep */
(PID.TID 0000.0001)                 9.000000000000000E+02
(PID.TID 0000.0001)     ;
(PID.TID 0000.0001) SEAICE_deltaTdyn  = /* dynamic timestep */
(PID.TID 0000.0001)                 9.000000000000000E+02
(PID.TID 0000.0001)     ;
(PID.TID 0000.0001) SEAICE_deltaTevp  = /* EVP timestep */
(PID.TID 0000.0001)                 1.234567000000000E+05
(PID.TID 0000.0001)     ;
(PID.TID 0000.0001) SEAICEuseBDF2  = /* use backw. differencing for mom. eq. */
(PID.TID 0000.0001)                   F
(PID.TID 0000.0001)     ;
(PID.TID 0000.0001) SEAICEupdateOceanStress= /* update Ocean surf. stress */
(PID.TID 0000.0001)                   T
(PID.TID 0000.0001)     ;
(PID.TID 0000.0001) SEAICErestoreUnderIce  = /* restore T and S under ice */
(PID.TID 0000.0001)                   F
(PID.TID 0000.0001)     ;
(PID.TID 0000.0001) 
(PID.TID 0000.0001)    Seaice dynamics configuration   > START <
(PID.TID 0000.0001)    ------------------------------------------
(PID.TID 0000.0001) SEAICEuseDYNAMICS = /* use dynamics */
(PID.TID 0000.0001)                   T
(PID.TID 0000.0001)     ;
(PID.TID 0000.0001) model grid type   = /* type of sea ice model grid */
(PID.TID 0000.0001)               'C-GRID'
(PID.TID 0000.0001)     ;
(PID.TID 0000.0001) SEAICEuseStrImpCpl = /* use strongly implicit coupling */
(PID.TID 0000.0001)                   F
(PID.TID 0000.0001)     ;
(PID.TID 0000.0001) SEAICEusePicardAsPrecon = /* Picard as preconditioner */
(PID.TID 0000.0001)                   F
(PID.TID 0000.0001)     ;
(PID.TID 0000.0001) SEAICEuseLSR      = /* use default Picard-LSR solver */
(PID.TID 0000.0001)                   T
(PID.TID 0000.0001)     ;
(PID.TID 0000.0001) SEAICEuseKrylov   = /* use Picard-Krylov solver */
(PID.TID 0000.0001)                   F
(PID.TID 0000.0001)     ;
(PID.TID 0000.0001) SEAICEuseEVP      = /* use EVP solver rather than LSR */
(PID.TID 0000.0001)                   F
(PID.TID 0000.0001)     ;
(PID.TID 0000.0001) SEAICEuseJFNK     = /* use JFNK solver */
(PID.TID 0000.0001)                   F
(PID.TID 0000.0001)     ;
(PID.TID 0000.0001) OCEAN_drag        = /* air-ocean drag coefficient */
(PID.TID 0000.0001)                 8.154100000000000E-04
(PID.TID 0000.0001)     ;
(PID.TID 0000.0001) SEAICE_drag       = /* air-ice drag coefficient */
(PID.TID 0000.0001)                 2.000000000000000E-03
(PID.TID 0000.0001)     ;
(PID.TID 0000.0001) SEAICE_drag_south      = /* Southern Ocean SEAICE_drag */
(PID.TID 0000.0001)                 2.000000000000000E-03
(PID.TID 0000.0001)     ;
(PID.TID 0000.0001) SEAICE_waterDrag  = /* water-ice drag */
(PID.TID 0000.0001)                 5.169855072463768E-03
(PID.TID 0000.0001)     ;
(PID.TID 0000.0001) SEAICE_waterDrag_south = /* Southern Ocean waterDrag */
(PID.TID 0000.0001)                 5.169855072463768E-03
(PID.TID 0000.0001)     ;
(PID.TID 0000.0001) SEAICEuseTilt     = /* include surface tilt in dyna. */
(PID.TID 0000.0001)                   T
(PID.TID 0000.0001)     ;
(PID.TID 0000.0001) SEAICEuseTEM      = /* use truncated ellipse rheology */
(PID.TID 0000.0001)                   F
(PID.TID 0000.0001)     ;
(PID.TID 0000.0001) SEAICE_strength   = /* sea-ice strength Pstar */
(PID.TID 0000.0001)                 2.678000000000000E+04
(PID.TID 0000.0001)     ;
(PID.TID 0000.0001) SEAICE_cStar      = /* sea-ice strength parameter cStar */
(PID.TID 0000.0001)                 2.000000000000000E+01
(PID.TID 0000.0001)     ;
(PID.TID 0000.0001) SEAICEpressReplFac= /* press. replacement method factor */
(PID.TID 0000.0001)                 1.000000000000000E+00
(PID.TID 0000.0001)     ;
(PID.TID 0000.0001) SEAICE_tensilFac  = /* sea-ice tensile strength factor */
(PID.TID 0000.0001)                 0.000000000000000E+00
(PID.TID 0000.0001)     ;
(PID.TID 0000.0001) SEAICE_tensilDepth= /* crit. depth for tensile strength */
(PID.TID 0000.0001)                 0.000000000000000E+00
(PID.TID 0000.0001)     ;
(PID.TID 0000.0001) SEAICEpresH0   = /* sea-ice strength Heff threshold */
(PID.TID 0000.0001)                 1.000000000000000E+00
(PID.TID 0000.0001)     ;
(PID.TID 0000.0001) SEAICEpresPow0 = /* exponent for Heff<SEAICEpresH0 */
(PID.TID 0000.0001)                       1
(PID.TID 0000.0001)     ;
(PID.TID 0000.0001) SEAICEpresPow1 = /* exponent for Heff>SEAICEpresH0 */
(PID.TID 0000.0001)                       1
(PID.TID 0000.0001)     ;
(PID.TID 0000.0001) SEAICEetaZmethod = /* method computing eta at Z-point */
(PID.TID 0000.0001)                       0
(PID.TID 0000.0001)     ;
(PID.TID 0000.0001) SEAICE_zetaMin    = /* lower bound for viscosity */
(PID.TID 0000.0001)                 0.000000000000000E+00
(PID.TID 0000.0001)     ;
(PID.TID 0000.0001) SEAICE_eccen    = /* elliptical yield curve eccent */
(PID.TID 0000.0001)                 2.000000000000000E+00
(PID.TID 0000.0001)     ;
(PID.TID 0000.0001) SEAICEstressFactor    = /* wind stress scaling factor */
(PID.TID 0000.0001)                 1.000000000000000E+00
(PID.TID 0000.0001)     ;
(PID.TID 0000.0001) SEAICE_airTurnAngle    = /* air-ice turning angle */
(PID.TID 0000.0001)                 0.000000000000000E+00
(PID.TID 0000.0001)     ;
(PID.TID 0000.0001) SEAICE_waterTurnAngle  = /* ice-water turning angle */
(PID.TID 0000.0001)                 0.000000000000000E+00
(PID.TID 0000.0001)     ;
(PID.TID 0000.0001) SEAICEuseMetricTerms = /* use metric terms */
(PID.TID 0000.0001)                   T
(PID.TID 0000.0001)     ;
(PID.TID 0000.0001) SEAICE_no_slip    = /* no slip boundary conditions */
(PID.TID 0000.0001)                   F
(PID.TID 0000.0001)     ;
(PID.TID 0000.0001) SEAICE_2ndOrderBC = /* 2nd order no slip boundary conditions */
(PID.TID 0000.0001)                   F
(PID.TID 0000.0001)     ;
(PID.TID 0000.0001) SEAICE_clipVeloctities = /* impose max. vels. */
(PID.TID 0000.0001)                   F
(PID.TID 0000.0001)     ;
(PID.TID 0000.0001) useHB87stressCoupling  = /* altern. ice-ocean stress */
(PID.TID 0000.0001)                   F
(PID.TID 0000.0001)     ;
(PID.TID 0000.0001) SEAICEscaleSurfStress  = /* scale atm. and ocean-surface stress with AREA */
(PID.TID 0000.0001)                   F
(PID.TID 0000.0001)     ;
(PID.TID 0000.0001) SEAICE_maskRHS    = /* mask RHS of solver */
(PID.TID 0000.0001)                   F
(PID.TID 0000.0001)     ;
(PID.TID 0000.0001) SEAICEaddSnowMass = /* add snow mass to seaiceMassC/U/V */
(PID.TID 0000.0001)                   F
(PID.TID 0000.0001)     ;
(PID.TID 0000.0001) LSR_mixIniGuess = /* mix free-drift sol. into LSR initial Guess */
(PID.TID 0000.0001)                      -1
(PID.TID 0000.0001)     ;
(PID.TID 0000.0001) SEAICE_LSRrelaxU  = /* LSR solver: relaxation parameter */
(PID.TID 0000.0001)                 9.500000000000000E-01
(PID.TID 0000.0001)     ;
(PID.TID 0000.0001) SEAICE_LSRrelaxV  = /* LSR solver: relaxation parameter */
(PID.TID 0000.0001)                 9.500000000000000E-01
(PID.TID 0000.0001)     ;
(PID.TID 0000.0001) LSR_ERROR         = /* sets accuracy of LSR solver */
(PID.TID 0000.0001)                 1.000000000000000E-04
(PID.TID 0000.0001)     ;
(PID.TID 0000.0001) SOLV_NCHECK       = /* test interval for LSR solver */
(PID.TID 0000.0001)                       2
(PID.TID 0000.0001)     ;
(PID.TID 0000.0001) SEAICEuseMultiTileSolver = /* use full domain tri-diag solver */
(PID.TID 0000.0001)                   F
(PID.TID 0000.0001)     ;
(PID.TID 0000.0001) SEAICE_OLx = /* overlap for LSR/preconditioner */
(PID.TID 0000.0001)                       0
(PID.TID 0000.0001)     ;
(PID.TID 0000.0001) SEAICE_OLy = /* overlap for LSR/preconditioner */
(PID.TID 0000.0001)                       0
(PID.TID 0000.0001)     ;
(PID.TID 0000.0001) SEAICEnonLinIterMax = /* max. number of nonlinear solver steps */
(PID.TID 0000.0001)                       2
(PID.TID 0000.0001)     ;
(PID.TID 0000.0001) SEAICElinearIterMax = /* max. number of linear solver steps */
(PID.TID 0000.0001)                     500
(PID.TID 0000.0001)     ;
(PID.TID 0000.0001) SEAICEnonLinTol     = /* non-linear solver tolerance */
(PID.TID 0000.0001)                 0.000000000000000E+00
(PID.TID 0000.0001)     ;
(PID.TID 0000.0001) 
(PID.TID 0000.0001)    Seaice advection diffusion config,   > START <
(PID.TID 0000.0001)    -----------------------------------------------
(PID.TID 0000.0001) SEAICEmomAdvection = /* advect sea ice momentum */
(PID.TID 0000.0001)                   F
(PID.TID 0000.0001)     ;
(PID.TID 0000.0001) SEAICEadvHeff = /* advect effective ice thickness */
(PID.TID 0000.0001)                   T
(PID.TID 0000.0001)     ;
(PID.TID 0000.0001) SEAICEadvArea = /* advect fractional ice area */
(PID.TID 0000.0001)                   T
(PID.TID 0000.0001)     ;
(PID.TID 0000.0001) SEAICEadvSnow = /* advect snow layer together with ice */
(PID.TID 0000.0001)                   T
(PID.TID 0000.0001)     ;
(PID.TID 0000.0001) SEAICEadvScheme   = /* advection scheme for ice */
(PID.TID 0000.0001)                      77
(PID.TID 0000.0001)     ;
(PID.TID 0000.0001) SEAICEadvSchArea   = /* advection scheme for area */
(PID.TID 0000.0001)                      77
(PID.TID 0000.0001)     ;
(PID.TID 0000.0001) SEAICEadvSchHeff   = /* advection scheme for thickness */
(PID.TID 0000.0001)                      77
(PID.TID 0000.0001)     ;
(PID.TID 0000.0001) SEAICEadvSchSnow   = /* advection scheme for snow */
(PID.TID 0000.0001)                      77
(PID.TID 0000.0001)     ;
(PID.TID 0000.0001) SEAICEdiffKhArea   = /* diffusivity (m^2/s) for area */
(PID.TID 0000.0001)                 0.000000000000000E+00
(PID.TID 0000.0001)     ;
(PID.TID 0000.0001) SEAICEdiffKhHeff   = /* diffusivity (m^2/s) for heff */
(PID.TID 0000.0001)                 0.000000000000000E+00
(PID.TID 0000.0001)     ;
(PID.TID 0000.0001) SEAICEdiffKhSnow   = /* diffusivity (m^2/s) for snow */
(PID.TID 0000.0001)                 0.000000000000000E+00
(PID.TID 0000.0001)     ;
(PID.TID 0000.0001) DIFF1             = /* parameter used in advect.F [m/s] */
(PID.TID 0000.0001)                 0.000000000000000E+00
(PID.TID 0000.0001)     ;
(PID.TID 0000.0001) 
(PID.TID 0000.0001)    Seaice ice thickness distribution configuration   > START <
(PID.TID 0000.0001)    -----------------------------------------------------------
(PID.TID 0000.0001) nITD              = /* number of ice thickness categories */
(PID.TID 0000.0001)                       5
(PID.TID 0000.0001)     ;
(PID.TID 0000.0001) Hlimit = /* seaice thickness category bin limits ( m ), Hlimit(0)=0 */
(PID.TID 0000.0001)                 6.445072168194259E-01,      /* K =  1 */
(PID.TID 0000.0001)                 1.391433497576304E+00,      /* K =  2 */
(PID.TID 0000.0001)                 2.470179381959889E+00,      /* K =  3 */
(PID.TID 0000.0001)                 4.567287918850493E+00,      /* K =  4 */
(PID.TID 0000.0001)                 9.999000000000000E+02       /* K =  5 */
(PID.TID 0000.0001)     ;
(PID.TID 0000.0001) SEAICEuseLinRemapITD  = /* select linear remapping scheme for ITD */
(PID.TID 0000.0001)                   T
(PID.TID 0000.0001)     ;
(PID.TID 0000.0001) useHibler79IceStrength  = /* select ice strength parameterizationd */
(PID.TID 0000.0001)                   T
(PID.TID 0000.0001)     ;
(PID.TID 0000.0001) SEAICEsimpleRidging  = /* select ridging scheme */
(PID.TID 0000.0001)                   T
(PID.TID 0000.0001)     ;
(PID.TID 0000.0001) SEAICEpartFunc   = /* select ridging participation function */
(PID.TID 0000.0001)                       0
(PID.TID 0000.0001)     ;
(PID.TID 0000.0001) SEAICEredistFunc = /* select ridging redistribution function */
(PID.TID 0000.0001)                       0
(PID.TID 0000.0001)     ;
(PID.TID 0000.0001) SEAICE_cf  = /* ice strength parameter */
(PID.TID 0000.0001)                 1.700000000000000E+01
(PID.TID 0000.0001)     ;
(PID.TID 0000.0001) SEAICEshearParm  = /* amount of energy lost to shear */
(PID.TID 0000.0001)                 5.000000000000000E-01
(PID.TID 0000.0001)     ;
(PID.TID 0000.0001) SEAICEgStar  = /* ridging parameter */
(PID.TID 0000.0001)                 1.500000000000000E-01
(PID.TID 0000.0001)     ;
(PID.TID 0000.0001) SEAICEhStar  = /* ridging parameter */
(PID.TID 0000.0001)                 2.500000000000000E+01
(PID.TID 0000.0001)     ;
(PID.TID 0000.0001) SEAICEaStar  = /* ridging parameter */
(PID.TID 0000.0001)                 5.000000000000000E-02
(PID.TID 0000.0001)     ;
(PID.TID 0000.0001) SEAICEmuRidging  = /* ridging parameter */
(PID.TID 0000.0001)                 3.000000000000000E+00
(PID.TID 0000.0001)     ;
(PID.TID 0000.0001) SEAICEmaxRaft  = /* ridging parameter */
(PID.TID 0000.0001)                 1.000000000000000E+00
(PID.TID 0000.0001)     ;
(PID.TID 0000.0001) SEAICEsnowFracRidge  = /* fraction of snow remaining on ridges */
(PID.TID 0000.0001)                 5.000000000000000E-01
(PID.TID 0000.0001)     ;
(PID.TID 0000.0001) 
(PID.TID 0000.0001)    Seaice thermodynamics configuration   > START <
(PID.TID 0000.0001)    -----------------------------------------------
(PID.TID 0000.0001) SEAICE_rhoIce     = /* density of sea ice (kg/m3) */
(PID.TID 0000.0001)                 9.100000000000000E+02
(PID.TID 0000.0001)     ;
(PID.TID 0000.0001) SEAICE_rhoSnow    = /* density of snow (kg/m3) */
(PID.TID 0000.0001)                 3.300000000000000E+02
(PID.TID 0000.0001)     ;
(PID.TID 0000.0001) SEAICE_rhoAir     = /* density of air (kg/m3) */
(PID.TID 0000.0001)                 1.300000000000000E+00
(PID.TID 0000.0001)     ;
(PID.TID 0000.0001) usePW79thermodynamics  = /* default 0-layer TD */
(PID.TID 0000.0001)                   F
(PID.TID 0000.0001)     ;
(PID.TID 0000.0001)    pkg/seaice thermodynamics is OFF
(PID.TID 0000.0001) 
(PID.TID 0000.0001)    Seaice initialization and IO config.,   > START <
(PID.TID 0000.0001)    -------------------------------------------------
(PID.TID 0000.0001) SEAICE_initialHEFF= /* initial sea-ice thickness */
(PID.TID 0000.0001)                 0.000000000000000E+00
(PID.TID 0000.0001)     ;
(PID.TID 0000.0001) AreaFile = /* Initial ice concentration File */
(PID.TID 0000.0001)               ''
(PID.TID 0000.0001)     ;
(PID.TID 0000.0001) HeffFile = /* Initial effective ice thickness File */
(PID.TID 0000.0001)               ''
(PID.TID 0000.0001)     ;
(PID.TID 0000.0001) HsnowFile = /* Initial snow thickness File */
(PID.TID 0000.0001)               ''
(PID.TID 0000.0001)     ;
(PID.TID 0000.0001) uIceFile = /* Initial U-ice velocity File */
(PID.TID 0000.0001)               ''
(PID.TID 0000.0001)     ;
(PID.TID 0000.0001) vIceFile = /* Initial V-ice velocity File */
(PID.TID 0000.0001)               ''
(PID.TID 0000.0001)     ;
(PID.TID 0000.0001) SEAICEwriteState  = /* write sea ice state to file */
(PID.TID 0000.0001)                   T
(PID.TID 0000.0001)     ;
(PID.TID 0000.0001) SEAICE_monFreq  = /* monitor frequency */
(PID.TID 0000.0001)                 7.200000000000000E+03
(PID.TID 0000.0001)     ;
(PID.TID 0000.0001) SEAICE_dumpFreq   = /* dump frequency */
(PID.TID 0000.0001)                 0.000000000000000E+00
(PID.TID 0000.0001)     ;
(PID.TID 0000.0001) SEAICE_taveFreq   = /* time-averaging frequency */
(PID.TID 0000.0001)                 0.000000000000000E+00
(PID.TID 0000.0001)     ;
(PID.TID 0000.0001) SEAICE_mon_stdio  = /* write monitor to std-outp */
(PID.TID 0000.0001)                   T
(PID.TID 0000.0001)     ;
(PID.TID 0000.0001) SEAICE_dump_mdsio = /* write snap-shot   using MDSIO */
(PID.TID 0000.0001)                   T
(PID.TID 0000.0001)     ;
(PID.TID 0000.0001) SEAICE_tave_mdsio = /* write TimeAverage using MDSIO */
(PID.TID 0000.0001)                   T
(PID.TID 0000.0001)     ;
(PID.TID 0000.0001) 
(PID.TID 0000.0001)    Seaice regularization numbers,   > START <
(PID.TID 0000.0001)    -----------------------------------------------
(PID.TID 0000.0001) SEAICE_deltaMin   = /* reduce singularities in Delta */
(PID.TID 0000.0001)                 1.000000000000000E-10
(PID.TID 0000.0001)     ;
(PID.TID 0000.0001) SEAICE_EPS        = /* small number */
(PID.TID 0000.0001)                 1.000000000000000E-10
(PID.TID 0000.0001)     ;
(PID.TID 0000.0001) SEAICE_EPS_SQ     = /* small number squared */
(PID.TID 0000.0001)                 1.000000000000000E-20
(PID.TID 0000.0001)     ;
(PID.TID 0000.0001) SEAICE_area_reg   = /* reduce derivative singularities */
(PID.TID 0000.0001)                 1.000000000000000E-05
(PID.TID 0000.0001)     ;
(PID.TID 0000.0001) SEAICE_hice_reg   = /* reduce derivative singularities */
(PID.TID 0000.0001)                 5.000000000000000E-02
(PID.TID 0000.0001)     ;
(PID.TID 0000.0001) SEAICE_area_floor = /* reduce derivative singularities */
(PID.TID 0000.0001)                 1.000000000000000E-05
(PID.TID 0000.0001)     ;
(PID.TID 0000.0001) 
(PID.TID 0000.0001) // =======================================================
(PID.TID 0000.0001) // Seaice configuration (SEAICE_PARM01) >>> END <<<
(PID.TID 0000.0001) // =======================================================
(PID.TID 0000.0001) 
(PID.TID 0000.0001) ctrl-wet 1:    nvarlength =        34632
(PID.TID 0000.0001) ctrl-wet 2: surface wet C =          312
(PID.TID 0000.0001) ctrl-wet 3: surface wet W =          312
(PID.TID 0000.0001) ctrl-wet 4: surface wet S =          283
(PID.TID 0000.0001) ctrl-wet 4a:surface wet V =            0
(PID.TID 0000.0001) ctrl-wet 5: 3D wet points =        11544
(PID.TID 0000.0001) ctrl-wet 6: no recs for i =     1           0
(PID.TID 0000.0001) ctrl-wet 6: no recs for i =     2           0
(PID.TID 0000.0001) ctrl-wet 6: no recs for i =     3           0
(PID.TID 0000.0001) ctrl-wet 6: no recs for i =     4           0
(PID.TID 0000.0001) ctrl-wet 6: no recs for i =     5           0
(PID.TID 0000.0001) ctrl-wet 6: no recs for i =     6           0
(PID.TID 0000.0001) ctrl-wet 6: no recs for i =     7           0
(PID.TID 0000.0001) ctrl-wet 6: no recs for i =     8           0
(PID.TID 0000.0001) ctrl-wet 6: no recs for i =     9           0
(PID.TID 0000.0001) ctrl-wet 6: no recs for i =    10           0
(PID.TID 0000.0001) ctrl-wet 6: no recs for i =    11           0
(PID.TID 0000.0001) ctrl-wet 6: no recs for i =    12           0
(PID.TID 0000.0001) ctrl-wet 6: no recs for i =    13           0
(PID.TID 0000.0001) ctrl-wet 6: no recs for i =    14           0
(PID.TID 0000.0001) ctrl-wet 6: no recs for i =    15           0
(PID.TID 0000.0001) ctrl-wet 6: no recs for i =    16           0
(PID.TID 0000.0001) ctrl-wet 6: no recs for i =    17           0
(PID.TID 0000.0001) ctrl-wet 6: no recs for i =    18           0
(PID.TID 0000.0001) ctrl-wet 6: no recs for i =    19           0
(PID.TID 0000.0001) ctrl-wet 6: no recs for i =    20           0
(PID.TID 0000.0001) ctrl-wet 6: no recs for i =    21           0
(PID.TID 0000.0001) ctrl-wet 6: no recs for i =    22           0
(PID.TID 0000.0001) ctrl-wet 6: no recs for i =    23           0
(PID.TID 0000.0001) ctrl-wet 6: no recs for i =    24           0
(PID.TID 0000.0001) ctrl-wet 6: no recs for i =    25           0
(PID.TID 0000.0001) ctrl-wet 6: no recs for i =    26           0
(PID.TID 0000.0001) ctrl-wet 6: no recs for i =    27           0
(PID.TID 0000.0001) ctrl-wet 6: no recs for i =    28           0
(PID.TID 0000.0001) ctrl-wet 6: no recs for i =    29           0
(PID.TID 0000.0001) ctrl-wet 6: no recs for i =    30           0
(PID.TID 0000.0001) ctrl-wet 6: no recs for i =    31           0
(PID.TID 0000.0001) ctrl-wet 6: no recs for i =    32           0
(PID.TID 0000.0001) ctrl-wet 6: no recs for i =    33           0
(PID.TID 0000.0001) ctrl-wet 6: no recs for i =    34           0
(PID.TID 0000.0001) ctrl-wet 6: no recs for i =    35           0
(PID.TID 0000.0001) ctrl-wet 6: no recs for i =    36           0
(PID.TID 0000.0001) ctrl-wet 6: no recs for i =    37           0
(PID.TID 0000.0001) ctrl-wet 6: no recs for i =    38           0
(PID.TID 0000.0001) ctrl-wet 6: no recs for i =    39           0
(PID.TID 0000.0001) ctrl-wet 6: no recs for i =    40           0
(PID.TID 0000.0001) ctrl-wet 6: no recs for i =    41           0
(PID.TID 0000.0001) ctrl-wet 6: no recs for i =    42           0
(PID.TID 0000.0001) ctrl-wet 6: no recs for i =    43           0
(PID.TID 0000.0001) ctrl-wet 6: no recs for i =    44           0
(PID.TID 0000.0001) ctrl-wet 6: no recs for i =    45           0
(PID.TID 0000.0001) ctrl-wet 6: no recs for i =    46           0
(PID.TID 0000.0001) ctrl-wet 6: no recs for i =    47           0
(PID.TID 0000.0001) ctrl-wet 6: no recs for i =    48           0
(PID.TID 0000.0001) ctrl-wet 6: no recs for i =    49           0
(PID.TID 0000.0001) ctrl-wet 6: no recs for i =    50           0
(PID.TID 0000.0001) ctrl-wet 6: no recs for i =    51           0
(PID.TID 0000.0001) ctrl-wet 6: no recs for i =    52           0
(PID.TID 0000.0001) ctrl-wet 6: no recs for i =    53           0
(PID.TID 0000.0001) ctrl-wet 6: no recs for i =    54           0
(PID.TID 0000.0001) ctrl-wet 6: no recs for i =    55           0
(PID.TID 0000.0001) ctrl-wet 6: no recs for i =    56           0
(PID.TID 0000.0001) ctrl-wet 6: no recs for i =    57           0
(PID.TID 0000.0001) ctrl-wet 6: no recs for i =    58           0
(PID.TID 0000.0001) ctrl-wet 6: no recs for i =    59           0
(PID.TID 0000.0001) ctrl-wet 6: no recs for i =    60           0
(PID.TID 0000.0001) ctrl-wet 6: no recs for i =    61           0
(PID.TID 0000.0001) ctrl-wet 6: no recs for i =    62           0
(PID.TID 0000.0001) ctrl-wet 6: no recs for i =    63           0
(PID.TID 0000.0001) ctrl-wet 6: no recs for i =    64           0
(PID.TID 0000.0001) ctrl-wet 6: no recs for i =    65           0
(PID.TID 0000.0001) ctrl-wet 6: no recs for i =    66           0
(PID.TID 0000.0001) ctrl-wet 6: no recs for i =    67           0
(PID.TID 0000.0001) ctrl-wet 6: no recs for i =    68           0
(PID.TID 0000.0001) ctrl-wet 6: no recs for i =    69           0
(PID.TID 0000.0001) ctrl-wet 6: no recs for i =    70           0
(PID.TID 0000.0001) ctrl-wet 6: no recs for i =    71           0
(PID.TID 0000.0001) ctrl-wet 6: no recs for i =    72           0
(PID.TID 0000.0001) ctrl-wet 6: no recs for i =    73           0
(PID.TID 0000.0001) ctrl-wet 6: no recs for i =    74           0
(PID.TID 0000.0001) ctrl-wet 6: no recs for i =    75           0
(PID.TID 0000.0001) ctrl-wet 6: no recs for i =    76           0
(PID.TID 0000.0001) ctrl-wet 6: no recs for i =    77           0
(PID.TID 0000.0001) ctrl-wet 6: no recs for i =    78           0
(PID.TID 0000.0001) ctrl-wet 6: no recs for i =    79           0
(PID.TID 0000.0001) ctrl-wet 6: no recs for i =    80           0
(PID.TID 0000.0001) ctrl-wet 6: no recs for i =    81           0
(PID.TID 0000.0001) ctrl-wet 6: no recs for i =    82           0
(PID.TID 0000.0001) ctrl-wet 6: no recs for i =    83           0
(PID.TID 0000.0001) ctrl-wet 6: no recs for i =    84           0
(PID.TID 0000.0001) ctrl-wet 6: no recs for i =    85           0
(PID.TID 0000.0001) ctrl-wet 6: no recs for i =    86           0
(PID.TID 0000.0001) ctrl-wet 6: no recs for i =    87           0
(PID.TID 0000.0001) ctrl-wet 6: no recs for i =    88           0
(PID.TID 0000.0001) ctrl-wet 6: no recs for i =    89           0
(PID.TID 0000.0001) ctrl-wet 6: no recs for i =    90           0
(PID.TID 0000.0001) ctrl-wet 6: no recs for i =    91           0
(PID.TID 0000.0001) ctrl-wet 6: no recs for i =    92           0
(PID.TID 0000.0001) ctrl-wet 6: no recs for i =    93           0
(PID.TID 0000.0001) ctrl-wet 6: no recs for i =    94           0
(PID.TID 0000.0001) ctrl-wet 6: no recs for i =    95           0
(PID.TID 0000.0001) ctrl-wet 6: no recs for i =    96           0
(PID.TID 0000.0001) ctrl-wet 6: no recs for i =    97           0
(PID.TID 0000.0001) ctrl-wet 6: no recs for i =    98           0
(PID.TID 0000.0001) ctrl-wet 6: no recs for i =    99           0
(PID.TID 0000.0001) ctrl-wet 6: no recs for i =   100           0
(PID.TID 0000.0001) ctrl-wet 6: no recs for i =   101           0
(PID.TID 0000.0001) ctrl-wet 6: no recs for i =   102           0
(PID.TID 0000.0001) ctrl-wet 6: no recs for i =   103           0
(PID.TID 0000.0001) ctrl-wet 6: no recs for i =   104           0
[...]
(PID.TID 0000.0001) %MON dynstat_vvel_mean            =   1.6267325677632E-03
(PID.TID 0000.0001) %MON dynstat_vvel_sd              =   2.2469843608760E-02
(PID.TID 0000.0001) %MON dynstat_vvel_del2            =   1.2576897768512E-05
(PID.TID 0000.0001) %MON dynstat_wvel_max             =   3.7135936115509E-03
(PID.TID 0000.0001) %MON dynstat_wvel_min             =  -2.0353450439912E-03
(PID.TID 0000.0001) %MON dynstat_wvel_mean            =   3.5586998396424E-08
(PID.TID 0000.0001) %MON dynstat_wvel_sd              =   3.1484353203479E-05
(PID.TID 0000.0001) %MON dynstat_wvel_del2            =   4.9941661071088E-08
(PID.TID 0000.0001) %MON dynstat_theta_max            =   3.2617553899525E+01
(PID.TID 0000.0001) %MON dynstat_theta_min            =  -2.0422694090429E+00
(PID.TID 0000.0001) %MON dynstat_theta_mean           =   3.5905110011924E+00
(PID.TID 0000.0001) %MON dynstat_theta_sd             =   4.4362136812231E+00
(PID.TID 0000.0001) %MON dynstat_theta_del2           =   1.0424892977116E-04
(PID.TID 0000.0001) %MON dynstat_salt_max             =   4.0711529947064E+01
(PID.TID 0000.0001) %MON dynstat_salt_min             =   1.8876143461107E+01
(PID.TID 0000.0001) %MON dynstat_salt_mean            =   3.4725612884524E+01
(PID.TID 0000.0001) %MON dynstat_salt_sd              =   3.7707565843648E-01
(PID.TID 0000.0001) %MON dynstat_salt_del2            =   2.5297265354645E-05
(PID.TID 0000.0001) %MON dynstat_sst_max              =   3.2571370381423E+01
(PID.TID 0000.0001) %MON dynstat_sst_min              =  -1.8836207700751E+00
(PID.TID 0000.0001) %MON dynstat_sst_mean             =   1.8486332217483E+01
(PID.TID 0000.0001) %MON dynstat_sst_sd               =   1.0116184342476E+01
(PID.TID 0000.0001) %MON dynstat_sst_del2             =   8.5181641442915E-04
(PID.TID 0000.0001) %MON dynstat_sss_max              =   3.9353026422495E+01
(PID.TID 0000.0001) %MON dynstat_sss_min              =   1.8876143461107E+01
(PID.TID 0000.0001) %MON dynstat_sss_mean             =   3.4686583208159E+01
(PID.TID 0000.0001) %MON dynstat_sss_sd               =   1.1262627126053E+00
(PID.TID 0000.0001) %MON dynstat_sss_del2             =   3.6491120296737E-04
(PID.TID 0000.0001) %MON forcing_qnet_max             =   1.2991953620331E+03
(PID.TID 0000.0001) %MON forcing_qnet_min             =  -9.1358810678554E+02
(PID.TID 0000.0001) %MON forcing_qnet_mean            =  -9.0771663303772E+00
(PID.TID 0000.0001) %MON forcing_qnet_sd              =   1.8481788558680E+02
(PID.TID 0000.0001) %MON forcing_qnet_del2            =   3.4402187835845E-01
(PID.TID 0000.0001) %MON forcing_qsw_max              =   0.0000000000000E+00
(PID.TID 0000.0001) %MON forcing_qsw_min              =  -1.0995537651820E+02
(PID.TID 0000.0001) %MON forcing_qsw_mean             =  -2.0437512894363E+01
(PID.TID 0000.0001) %MON forcing_qsw_sd               =   2.9903434173128E+01
(PID.TID 0000.0001) %MON forcing_qsw_del2             =   2.0013767445319E-02
(PID.TID 0000.0001) %MON forcing_empmr_max            =   1.5211317222565E-03
(PID.TID 0000.0001) %MON forcing_empmr_min            =  -4.0536304004490E-03
(PID.TID 0000.0001) %MON forcing_empmr_mean           =  -5.4347613998422E-06
(PID.TID 0000.0001) %MON forcing_empmr_sd             =   1.2653579625947E-04
(PID.TID 0000.0001) %MON forcing_empmr_del2           =   5.3314041375847E-07
(PID.TID 0000.0001) %MON forcing_fu_max               =   1.3546582397039E+00
(PID.TID 0000.0001) %MON forcing_fu_min               =  -6.9918725373317E-01
(PID.TID 0000.0001) %MON forcing_fu_mean              =   8.8838349046514E-03
(PID.TID 0000.0001) %MON forcing_fu_sd                =   1.0198790045468E-01
(PID.TID 0000.0001) %MON forcing_fu_del2              =   1.5873630107299E-04
(PID.TID 0000.0001) %MON forcing_fv_max               =   1.0030808088714E+00
(PID.TID 0000.0001) %MON forcing_fv_min               =  -8.7965984880955E-01
(PID.TID 0000.0001) %MON forcing_fv_mean              =  -1.0230709571194E-02
(PID.TID 0000.0001) %MON forcing_fv_sd                =   1.0442726108617E-01
(PID.TID 0000.0001) %MON forcing_fv_del2              =   1.4741257882256E-04
(PID.TID 0000.0001) %MON trAdv_CFL_u_max              =   2.2928861015605E-02
(PID.TID 0000.0001) %MON trAdv_CFL_v_max              =   1.5945038757453E-02
(PID.TID 0000.0001) %MON trAdv_CFL_w_max              =   1.1419247238089E-01
(PID.TID 0000.0001) %MON advcfl_uvel_max              =   2.1557780818387E-02
(PID.TID 0000.0001) %MON advcfl_vvel_max              =   1.5321831604477E-02
(PID.TID 0000.0001) %MON advcfl_wvel_max              =   1.1890325671306E-01
(PID.TID 0000.0001) %MON advcfl_W_hf_max              =   1.2554765805284E-01
(PID.TID 0000.0001) %MON pe_b_mean                    =   6.2409120409339E-04
(PID.TID 0000.0001) %MON ke_max                       =   4.4442764190636E-01
(PID.TID 0000.0001) %MON ke_mean                      =   4.5986874239265E-04
(PID.TID 0000.0001) %MON ke_vol                       =   1.3349971289472E+18
(PID.TID 0000.0001) %MON vort_r_min                   =  -2.7928509194481E-05
(PID.TID 0000.0001) %MON vort_r_max                   =   3.7582684799410E-05
(PID.TID 0000.0001) %MON vort_a_mean                  =  -1.9727864647440E-05
(PID.TID 0000.0001) %MON vort_a_sd                    =   7.4543217701590E-05
(PID.TID 0000.0001) %MON vort_p_mean                  =  -2.1760541186420E-05
(PID.TID 0000.0001) %MON vort_p_sd                    =   9.7245773693692E-05
(PID.TID 0000.0001) %MON surfExpan_theta_mean         =  -1.7467961827738E-06
(PID.TID 0000.0001) %MON surfExpan_salt_mean          =  -1.2152295727107E-07
(PID.TID 0000.0001) // =======================================================
(PID.TID 0000.0001) // End MONITOR dynamic field statistics
(PID.TID 0000.0001) // =======================================================
(PID.TID 0000.0001) // =======================================================
(PID.TID 0000.0001) // Begin MONITOR SEAICE statistics
(PID.TID 0000.0001) // =======================================================
(PID.TID 0000.0001) %MON seaice_tsnumber              =                    88
(PID.TID 0000.0001) %MON seaice_time_sec              =   7.9200000000000E+04
(PID.TID 0000.0001) %MON seaice_uice_max              =   6.3464463514143E-01
(PID.TID 0000.0001) %MON seaice_uice_min              =  -6.6437826273349E-01
(PID.TID 0000.0001) %MON seaice_uice_mean             =  -2.5549356317065E-03
(PID.TID 0000.0001) %MON seaice_uice_sd               =   1.4174276977796E-01
(PID.TID 0000.0001) %MON seaice_uice_del2             =   2.6513224291467E-04
(PID.TID 0000.0001) %MON seaice_vice_max              =   7.6922050389502E-01
(PID.TID 0000.0001) %MON seaice_vice_min              =  -9.1973363861320E-01
(PID.TID 0000.0001) %MON seaice_vice_mean             =  -1.8436893257467E-02
(PID.TID 0000.0001) %MON seaice_vice_sd               =   1.5359515911468E-01
(PID.TID 0000.0001) %MON seaice_vice_del2             =   2.4617495531599E-04
(PID.TID 0000.0001) %MON seaice_area_max              =   1.0046080600409E+00
(PID.TID 0000.0001) %MON seaice_area_min              =   0.0000000000000E+00
(PID.TID 0000.0001) %MON seaice_area_mean             =   6.2612607578867E-02
(PID.TID 0000.0001) %MON seaice_area_sd               =   2.2288985543335E-01
(PID.TID 0000.0001) %MON seaice_area_del2             =   9.1065977785730E-04
(PID.TID 0000.0001) %MON seaice_heff_max              =   2.2873277052922E+01
(PID.TID 0000.0001) %MON seaice_heff_min              =   0.0000000000000E+00
(PID.TID 0000.0001) %MON seaice_heff_mean             =   1.9386805831876E-01
(PID.TID 0000.0001) %MON seaice_heff_sd               =   1.0042975837047E+00
(PID.TID 0000.0001) %MON seaice_heff_del2             =   4.8694237533878E-03
(PID.TID 0000.0001) %MON seaice_hsnow_max             =   7.5550908244945E+00
(PID.TID 0000.0001) %MON seaice_hsnow_min             =   0.0000000000000E+00
(PID.TID 0000.0001) %MON seaice_hsnow_mean            =   2.1479276940587E-02
(PID.TID 0000.0001) %MON seaice_hsnow_sd              =   1.3279126474700E-01
(PID.TID 0000.0001) %MON seaice_hsnow_del2            =   1.2459816540474E-03
(PID.TID 0000.0001) // =======================================================
(PID.TID 0000.0001) // End MONITOR SEAICE statistics
(PID.TID 0000.0001) // =======================================================
 SEAICE_LSR: Residual Initial ipass,Uice,Vice=    1  6.66642601E-03  6.61166568E-03
 SEAICE_LSR (ipass=   1) iters,dU,Resid=    38  6.52219018E-05  1.30392308E-03
 SEAICE_LSR (ipass=   1) iters,dV,Resid=    38  9.89386959E-05  1.47817216E-03
 SEAICE_LSR: Residual Initial ipass,Uice,Vice=    2  5.17864878E-03  5.92640713E-03
 SEAICE_LSR (ipass=   2) iters,dU,Resid=    34  4.84540621E-05  1.27726711E-03
 SEAICE_LSR (ipass=   2) iters,dV,Resid=    34  9.76690108E-05  1.37152527E-03
 cg2d: Sum(rhs),rhsMax =   6.57396602548039E+01  3.02506097912612E-01
 cg2d: Sum(rhs),rhsMax =   6.55809824957198E+01  3.02083489438642E-01
 cg2d: Sum(rhs),rhsMax =   6.54136962562042E+01  3.01597058076512E-01
 cg2d: Sum(rhs),rhsMax =   6.52480074778299E+01  3.01053656550568E-01
 cg2d: Sum(rhs),rhsMax =   6.50877565177106E+01  3.00455610156761E-01
 cg2d: Sum(rhs),rhsMax =   6.49358039513001E+01  2.99810621066352E-01
 cg2d: Sum(rhs),rhsMax =   6.48046189688415E+01  2.99123358049899E-01
 cg2d: Sum(rhs),rhsMax =   6.46671432335910E+01  2.98402776589299E-01
(PID.TID 0000.0001)      cg2d_init_res =   2.69591100422713E-01
(PID.TID 0000.0001)      cg2d_iters(min,last) =      -1      31
(PID.TID 0000.0001)      cg2d_last_res =   2.76718179296679E-05
(PID.TID 0000.0001) // =======================================================
(PID.TID 0000.0001) // Begin MONITOR dynamic field statistics
(PID.TID 0000.0001) // =======================================================
(PID.TID 0000.0001) %MON time_tsnumber                =                    96
(PID.TID 0000.0001) %MON time_secondsf                =   8.6400000000000E+04
(PID.TID 0000.0001) %MON dynstat_eta_max              =   1.0846040426653E+00
(PID.TID 0000.0001) %MON dynstat_eta_min              =  -2.6599378557568E+00
(PID.TID 0000.0001) %MON dynstat_eta_mean             =  -2.0456282736302E-03
(PID.TID 0000.0001) %MON dynstat_eta_sd               =   6.8549374236059E-01
(PID.TID 0000.0001) %MON dynstat_eta_del2             =   7.5419300250251E-05
(PID.TID 0000.0001) %MON dynstat_uvel_max             =   9.0068072113042E-01
(PID.TID 0000.0001) %MON dynstat_uvel_min             =  -9.1783587790738E-01
(PID.TID 0000.0001) %MON dynstat_uvel_mean            =   8.6090364815030E-04
(PID.TID 0000.0001) %MON dynstat_uvel_sd              =   2.0956645963358E-02
(PID.TID 0000.0001) %MON dynstat_uvel_del2            =   1.2693969832505E-05
(PID.TID 0000.0001) %MON dynstat_vvel_max             =   8.4980303526171E-01
(PID.TID 0000.0001) %MON dynstat_vvel_min             =  -8.8961908203776E-01
(PID.TID 0000.0001) %MON dynstat_vvel_mean            =   1.5091166360727E-03
(PID.TID 0000.0001) %MON dynstat_vvel_sd              =   2.2237887047170E-02
(PID.TID 0000.0001) %MON dynstat_vvel_del2            =   1.2299665908382E-05
(PID.TID 0000.0001) %MON dynstat_wvel_max             =   3.8632912993896E-03
(PID.TID 0000.0001) %MON dynstat_wvel_min             =  -1.9112959237219E-03
(PID.TID 0000.0001) %MON dynstat_wvel_mean            =   3.6294218937510E-08
(PID.TID 0000.0001) %MON dynstat_wvel_sd              =   3.0781692421297E-05
(PID.TID 0000.0001) %MON dynstat_wvel_del2            =   4.8508628309792E-08
(PID.TID 0000.0001) %MON dynstat_theta_max            =   3.2571272208139E+01
(PID.TID 0000.0001) %MON dynstat_theta_min            =  -2.0422551773295E+00
(PID.TID 0000.0001) %MON dynstat_theta_mean           =   3.5905189123983E+00
(PID.TID 0000.0001) %MON dynstat_theta_sd             =   4.4362585900770E+00
(PID.TID 0000.0001) %MON dynstat_theta_del2           =   1.0380312328920E-04
(PID.TID 0000.0001) %MON dynstat_salt_max             =   4.0711531033302E+01
(PID.TID 0000.0001) %MON dynstat_salt_min             =   1.8876463879911E+01
(PID.TID 0000.0001) %MON dynstat_salt_mean            =   3.4725609369626E+01
(PID.TID 0000.0001) %MON dynstat_salt_sd              =   3.7706051527924E-01
(PID.TID 0000.0001) %MON dynstat_salt_del2            =   2.5142342038580E-05
(PID.TID 0000.0001) %MON dynstat_sst_max              =   3.2571252271316E+01
(PID.TID 0000.0001) %MON dynstat_sst_min              =  -1.8793533383582E+00
(PID.TID 0000.0001) %MON dynstat_sst_mean             =   1.8488948449469E+01
(PID.TID 0000.0001) %MON dynstat_sst_sd               =   1.0119954186961E+01
(PID.TID 0000.0001) %MON dynstat_sst_del2             =   8.4870815090778E-04
(PID.TID 0000.0001) %MON dynstat_sss_max              =   3.9333521307414E+01
(PID.TID 0000.0001) %MON dynstat_sss_min              =   1.8876463879911E+01
(PID.TID 0000.0001) %MON dynstat_sss_mean             =   3.4687148497379E+01
(PID.TID 0000.0001) %MON dynstat_sss_sd               =   1.1270061347332E+00
(PID.TID 0000.0001) %MON dynstat_sss_del2             =   3.6404265770051E-04
(PID.TID 0000.0001) %MON forcing_qnet_max             =   2.2776837853203E+03
(PID.TID 0000.0001) %MON forcing_qnet_min             =  -8.0536968994141E+02
(PID.TID 0000.0001) %MON forcing_qnet_mean            =  -2.3976561974643E+01
(PID.TID 0000.0001) %MON forcing_qnet_sd              =   2.0582304531535E+02
(PID.TID 0000.0001) %MON forcing_qnet_del2            =   3.6760359332635E-01
(PID.TID 0000.0001) %MON forcing_qsw_max              =   0.0000000000000E+00
(PID.TID 0000.0001) %MON forcing_qsw_min              =  -1.1119628861911E+02
(PID.TID 0000.0001) %MON forcing_qsw_mean             =  -2.2780124558383E+01
(PID.TID 0000.0001) %MON forcing_qsw_sd               =   3.1823095926618E+01
(PID.TID 0000.0001) %MON forcing_qsw_del2             =   1.9591849524959E-02
(PID.TID 0000.0001) %MON forcing_empmr_max            =   1.4067925512791E-03
(PID.TID 0000.0001) %MON forcing_empmr_min            =  -3.6985948681831E-03
(PID.TID 0000.0001) %MON forcing_empmr_mean           =  -4.9721240832952E-06
(PID.TID 0000.0001) %MON forcing_empmr_sd             =   1.2898568304900E-04
(PID.TID 0000.0001) %MON forcing_empmr_del2           =   5.6923466310647E-07
(PID.TID 0000.0001) %MON forcing_fu_max               =   1.2904965035791E+00
(PID.TID 0000.0001) %MON forcing_fu_min               =  -7.6789722682962E-01
(PID.TID 0000.0001) %MON forcing_fu_mean              =   8.5840181696717E-03
(PID.TID 0000.0001) %MON forcing_fu_sd                =   1.0121245440732E-01
(PID.TID 0000.0001) %MON forcing_fu_del2              =   1.5703541371220E-04
(PID.TID 0000.0001) %MON forcing_fv_max               =   1.0131820127813E+00
(PID.TID 0000.0001) %MON forcing_fv_min               =  -8.8961340705554E-01
(PID.TID 0000.0001) %MON forcing_fv_mean              =  -1.0203768456591E-02
(PID.TID 0000.0001) %MON forcing_fv_sd                =   1.0441597530879E-01
(PID.TID 0000.0001) %MON forcing_fv_del2              =   1.4542370007732E-04
(PID.TID 0000.0001) %MON trAdv_CFL_u_max              =   2.2753633525929E-02
(PID.TID 0000.0001) %MON trAdv_CFL_v_max              =   1.6412135831909E-02
(PID.TID 0000.0001) %MON trAdv_CFL_w_max              =   1.1740986378047E-01
(PID.TID 0000.0001) %MON advcfl_uvel_max              =   2.1217428713666E-02
(PID.TID 0000.0001) %MON advcfl_vvel_max              =   1.5084772242106E-02
(PID.TID 0000.0001) %MON advcfl_wvel_max              =   1.2225858563950E-01
(PID.TID 0000.0001) %MON advcfl_W_hf_max              =   1.2914111316889E-01
(PID.TID 0000.0001) %MON pe_b_mean                    =   6.1811512912779E-04
(PID.TID 0000.0001) %MON ke_max                       =   4.2256746803480E-01
(PID.TID 0000.0001) %MON ke_mean                      =   4.5168286886803E-04
(PID.TID 0000.0001) %MON ke_vol                       =   1.3349971430191E+18
(PID.TID 0000.0001) %MON vort_r_min                   =  -2.6944509756947E-05
(PID.TID 0000.0001) %MON vort_r_max                   =   3.6503099930590E-05
(PID.TID 0000.0001) %MON vort_a_mean                  =  -1.9727864647440E-05
(PID.TID 0000.0001) %MON vort_a_sd                    =   7.4543165418120E-05
(PID.TID 0000.0001) %MON vort_p_mean                  =  -2.1760540711719E-05
(PID.TID 0000.0001) %MON vort_p_sd                    =   9.7246018715105E-05
(PID.TID 0000.0001) %MON surfExpan_theta_mean         =  -1.5577646552255E-06
(PID.TID 0000.0001) %MON surfExpan_salt_mean          =  -1.2427207351317E-07
(PID.TID 0000.0001) // =======================================================
(PID.TID 0000.0001) // End MONITOR dynamic field statistics
(PID.TID 0000.0001) // =======================================================
(PID.TID 0000.0001) // =======================================================
(PID.TID 0000.0001) // Begin MONITOR SEAICE statistics
(PID.TID 0000.0001) // =======================================================
(PID.TID 0000.0001) %MON seaice_tsnumber              =                    96
(PID.TID 0000.0001) %MON seaice_time_sec              =   8.6400000000000E+04
(PID.TID 0000.0001) %MON seaice_uice_max              =   6.6272764014634E-01
(PID.TID 0000.0001) %MON seaice_uice_min              =  -6.8265313171159E-01
(PID.TID 0000.0001) %MON seaice_uice_mean             =  -2.9661256335878E-03
(PID.TID 0000.0001) %MON seaice_uice_sd               =   1.4085880137155E-01
(PID.TID 0000.0001) %MON seaice_uice_del2             =   2.6275995776615E-04
(PID.TID 0000.0001) %MON seaice_vice_max              =   7.7428394050618E-01
(PID.TID 0000.0001) %MON seaice_vice_min              =  -9.0955341304470E-01
(PID.TID 0000.0001) %MON seaice_vice_mean             =  -1.9972602145704E-02
(PID.TID 0000.0001) %MON seaice_vice_sd               =   1.5102992857343E-01
(PID.TID 0000.0001) %MON seaice_vice_del2             =   2.4077305754146E-04
(PID.TID 0000.0001) %MON seaice_area_max              =   1.0038262494391E+00
(PID.TID 0000.0001) %MON seaice_area_min              =   0.0000000000000E+00
(PID.TID 0000.0001) %MON seaice_area_mean             =   6.2472007825236E-02
(PID.TID 0000.0001) %MON seaice_area_sd               =   2.2273704963407E-01
(PID.TID 0000.0001) %MON seaice_area_del2             =   9.0769482142877E-04
(PID.TID 0000.0001) %MON seaice_heff_max              =   2.2868601131787E+01
(PID.TID 0000.0001) %MON seaice_heff_min              =   0.0000000000000E+00
(PID.TID 0000.0001) %MON seaice_heff_mean             =   1.9381389605354E-01
(PID.TID 0000.0001) %MON seaice_heff_sd               =   1.0041417807123E+00
(PID.TID 0000.0001) %MON seaice_heff_del2             =   4.8480454631941E-03
(PID.TID 0000.0001) %MON seaice_hsnow_max             =   7.5535466174685E+00
(PID.TID 0000.0001) %MON seaice_hsnow_min             =   0.0000000000000E+00
(PID.TID 0000.0001) %MON seaice_hsnow_mean            =   2.1474930836610E-02
(PID.TID 0000.0001) %MON seaice_hsnow_sd              =   1.3260357510336E-01
(PID.TID 0000.0001) %MON seaice_hsnow_del2            =   1.2372385914621E-03
(PID.TID 0000.0001) // =======================================================
(PID.TID 0000.0001) // End MONITOR SEAICE statistics
(PID.TID 0000.0001) // =======================================================
(PID.TID 0000.0001) %CHECKPOINT        96 0000000096
 SEAICE_LSR: Residual Initial ipass,Uice,Vice=    1  6.35196693E-03  5.72420938E-03
 SEAICE_LSR (ipass=   1) iters,dU,Resid=    30  7.09761574E-05  1.86070817E-03
 SEAICE_LSR (ipass=   1) iters,dV,Resid=    30  9.88462137E-05  1.36393779E-03
 SEAICE_LSR: Residual Initial ipass,Uice,Vice=    2  5.26388708E-03  4.66630654E-03
 SEAICE_LSR (ipass=   2) iters,dU,Resid=    22  7.18306135E-05  1.81884216E-03
 SEAICE_LSR (ipass=   2) iters,dV,Resid=    22  9.77167407E-05  1.34271379E-03
 cg2d: Sum(rhs),rhsMax =   6.45269812911968E+01  2.97658945319810E-01
(PID.TID 0000.0001) %CHECKPOINT        97 ckptA
