(PID.TID 0001.0001) 
(PID.TID 0001.0001) // ======================================================
(PID.TID 0001.0001) //                      MITgcm UV
(PID.TID 0001.0001) //                      =========
(PID.TID 0001.0001) // ======================================================
(PID.TID 0001.0001) // execution environment starting up...
(PID.TID 0001.0001) 
(PID.TID 0001.0001) // MITgcmUV version:  checkpoint58u_post
(PID.TID 0001.0001) // Build user:        cnh
(PID.TID 0001.0001) // Build host:        localhost.localdomain
(PID.TID 0001.0001) // Build date:        Sat Feb  3 21:12:25 EST 2007
(PID.TID 0001.0001) 
(PID.TID 0001.0001) // =======================================================
(PID.TID 0001.0001) // Execution Environment parameter file "eedata"
(PID.TID 0001.0001) // =======================================================
(PID.TID 0001.0001) ># Example "eedata" file
(PID.TID 0001.0001) ># Lines beginning "#" are comments
(PID.TID 0001.0001) ># nTx - No. threads per process in X
(PID.TID 0001.0001) ># nTy - No. threads per process in Y
(PID.TID 0001.0001) > &EEPARMS
(PID.TID 0001.0001) > useCubedSphereExchange=.TRUE.,
(PID.TID 0001.0001) > nTx=1,
(PID.TID 0001.0001) > nTy=1,
(PID.TID 0001.0001) > &end
(PID.TID 0001.0001) ># Note: Some systems use & as the
(PID.TID 0001.0001) ># namelist terminator. Other systems
(PID.TID 0001.0001) ># use a / character (as shown here).
(PID.TID 0001.0001) 
(PID.TID 0001.0001) // =======================================================
(PID.TID 0001.0001) // Computational Grid Specification ( see files "SIZE.h" )
(PID.TID 0001.0001) //                                  ( and "eedata"       )
(PID.TID 0001.0001) // =======================================================
(PID.TID 0001.0001)      nPx =    6 ; /* No. processes in X */
(PID.TID 0001.0001)      nPy =    1 ; /* No. processes in Y */
(PID.TID 0001.0001)      nSx =    1 ; /* No. tiles in X per process */
(PID.TID 0001.0001)      nSy =    1 ; /* No. tiles in Y per process */
(PID.TID 0001.0001)      sNx =   32 ; /* Tile size in X */
(PID.TID 0001.0001)      sNy =   32 ; /* Tile size in Y */
(PID.TID 0001.0001)      OLx =    3 ; /* Tile overlap distance in X */
(PID.TID 0001.0001)      OLy =    3 ; /* Tile overlap distance in Y */
(PID.TID 0001.0001)      nTx =    1 ; /* No. threads in X per process */
(PID.TID 0001.0001)      nTy =    1 ; /* No. threads in Y per process */
(PID.TID 0001.0001)       Nr =   15 ; /* No. levels in the vertical   */
(PID.TID 0001.0001)       nX =  192 ; /* Total domain size in X ( = nPx*nSx*sNx ) */
(PID.TID 0001.0001)       nY =   32 ; /* Total domain size in Y ( = nPy*nSy*sNy ) */
(PID.TID 0001.0001)   nTiles =    1 ; /* Total no. tiles per process ( = nSx*nSy ) */
(PID.TID 0001.0001)   nProcs =    6 ; /* Total no. processes ( = nPx*nPy ) */
(PID.TID 0001.0001) nThreads =    1 ; /* Total no. threads per process ( = nTx*nTy ) */
(PID.TID 0001.0001) usingMPI =    F ; /* Flag used to control whether MPI is in use */
(PID.TID 0001.0001)                   /*  note: To execute a program with MPI calls */
(PID.TID 0001.0001)                   /*  it must be launched appropriately e.g     */
(PID.TID 0001.0001)                   /*  "mpirun -np 64 ......"                    */
(PID.TID 0001.0001) useCoupler=   F ; /* Flag used to control communications with */
(PID.TID 0001.0001)                   /*  other model components, through a coupler */
(PID.TID 0001.0001) 
(PID.TID 0001.0001) ======= Starting MPI parallel Run =========
(PID.TID 0001.0001)  My Processor Name =                                                         heracles
(PID.TID 0001.0001)  Located at (  1,  0) on processor grid (0:  5,0:  0)
(PID.TID 0001.0001)  Origin at  (  33,   1) on global grid (1: 192,1:  32)
(PID.TID 0001.0001)  North neighbor = processor 0001
(PID.TID 0001.0001)  South neighbor = processor 0001
(PID.TID 0001.0001)   East neighbor = processor 0002
(PID.TID 0001.0001)   West neighbor = processor 0000
(PID.TID 0001.0001) // ======================================================
(PID.TID 0001.0001) // Mapping of tiles to threads
(PID.TID 0001.0001) // ======================================================
(PID.TID 0001.0001) // -o- Thread   1, tiles (   1:   1,   1:   1)
(PID.TID 0001.0001) 
(PID.TID 0001.0001) // ======================================================
(PID.TID 0001.0001) // Tile <-> Tile connectvity table
(PID.TID 0001.0001) // ======================================================
(PID.TID 0001.0001) // Tile number: 000002 (process no. = 000001)
(PID.TID 0001.0001) //        WEST: Tile = 000001, Process = 000000, Comm = messages
(PID.TID 0001.0001) //                bi = 000001, bj = 000001
(PID.TID 0001.0001) //        EAST: Tile = 000003, Process = 000002, Comm = messages
(PID.TID 0001.0001) //                bi = 000001, bj = 000001
(PID.TID 0001.0001) //       SOUTH: Tile = 000002, Process = 000001, Comm = put
(PID.TID 0001.0001) //                bi = 000001, bj = 000001
(PID.TID 0001.0001) //       NORTH: Tile = 000002, Process = 000001, Comm = put
(PID.TID 0001.0001) //                bi = 000001, bj = 000001
(PID.TID 0001.0001) 
(PID.TID 0001.0001) ===== W2 TILE TOPLOGY =====
(PID.TID 0001.0001)  TILE:    2
(PID.TID 0001.0001)       NEIGHBOUR    1 = TILE    3 Comm = MSG ( PROC =    3)
(PID.TID 0001.0001)       NEIGHBOUR    2 = TILE    6 Comm = MSG ( PROC =    6)
(PID.TID 0001.0001)       NEIGHBOUR    3 = TILE    4 Comm = MSG ( PROC =    4)
(PID.TID 0001.0001)       NEIGHBOUR    4 = TILE    1 Comm = MSG ( PROC =    1)
(PID.TID 0001.0001) Tile    2(proc =   2) sends points i=  -2:  35, j=  30:  32
(PID.TID 0001.0001)                          to points i=  -2:  35, j=  -2:   0 in tile    3(proc =   3)
(PID.TID 0001.0001) Tile    2(proc =   2) sends points i=  35:  -2, j=   1:   3
(PID.TID 0001.0001)                          to points i=  33:  35, j=  -2:  35 in tile    6(proc =   6)
(PID.TID 0001.0001) Tile    2(proc =   2) sends points i=  30:  32, j=  35:  -2
(PID.TID 0001.0001)                          to points i=  -2:  35, j=  -2:   0 in tile    4(proc =   4)
(PID.TID 0001.0001) Tile    2(proc =   2) sends points i=   1:   3, j=  -2:  35
(PID.TID 0001.0001)                          to points i=  33:  35, j=  -2:  35 in tile    1(proc =   1)
(PID.TID 0001.0001) Tile    2(proc =   3)recv to points i=  -2:  35, j=  33:  35from tile   3(proc =   3)
(PID.TID 0001.0001) Tile    2(proc =   6)recv to points i=  -2:  35, j=  -2:   0from tile   6(proc =   6)
(PID.TID 0001.0001) Tile    2(proc =   4)recv to points i=  33:  35, j=  -2:  35from tile   4(proc =   4)
(PID.TID 0001.0001) Tile    2(proc =   1)recv to points i=  -2:   0, j=  -2:  35from tile   1(proc =   1)
(PID.TID 0001.0001) // =======================================================
(PID.TID 0001.0001) // Model parameter file "data"
(PID.TID 0001.0001) // =======================================================
(PID.TID 0001.0001) ># ====================
(PID.TID 0001.0001) ># | Model parameters |
(PID.TID 0001.0001) ># ====================
(PID.TID 0001.0001) >#
(PID.TID 0001.0001) ># Continuous equation parameters
(PID.TID 0001.0001) > &PARM01
(PID.TID 0001.0001) > tRef=15*20.,
(PID.TID 0001.0001) > sRef=15*35.,
(PID.TID 0001.0001) > viscAh =3.E5,
(PID.TID 0001.0001) >#- biharmonic Viscosity: 3.e15 is close to the stability limit with deltaTmom=20mn
(PID.TID 0001.0001) >#viscA4 =3.E15,
(PID.TID 0001.0001) > viscAr =1.E-3,
(PID.TID 0001.0001) > diffKhT=0.,
(PID.TID 0001.0001) > diffK4T=0.,
(PID.TID 0001.0001) > diffKrT=3.E-5,
(PID.TID 0001.0001) > diffKhS=0.,
(PID.TID 0001.0001) > diffK4S=0.,
(PID.TID 0001.0001) > diffKrS=3.E-5,
(PID.TID 0001.0001) > ivdc_kappa=10.,
(PID.TID 0001.0001) > implicitDiffusion=.TRUE.,
(PID.TID 0001.0001) > rotationPeriod=86400.,
(PID.TID 0001.0001) > gravity=9.81,
(PID.TID 0001.0001) > rhonil=1035.,
(PID.TID 0001.0001) > rhoConstFresh=1000.,
(PID.TID 0001.0001) > eosType='JMD95Z',
(PID.TID 0001.0001) > staggerTimeStep=.TRUE.,
(PID.TID 0001.0001) > vectorInvariantMomentum=.TRUE.,
(PID.TID 0001.0001) > implicitFreeSurface=.TRUE.,
(PID.TID 0001.0001) > exactConserv=.TRUE.,
(PID.TID 0001.0001) > select_rStar=2,
(PID.TID 0001.0001) > nonlinFreeSurf=4,
(PID.TID 0001.0001) > hFacInf=0.2,
(PID.TID 0001.0001) > hFacSup=2.0,
(PID.TID 0001.0001) > useRealFreshWaterFlux=.TRUE.,
(PID.TID 0001.0001) > allowFreezing=.TRUE.,
(PID.TID 0001.0001) > hFacMin=.1,
(PID.TID 0001.0001) > hFacMinDr=20.,
(PID.TID 0001.0001) > readBinaryPrec=64,
(PID.TID 0001.0001) > &end
(PID.TID 0001.0001) >
(PID.TID 0001.0001) ># Elliptic solver parameters
(PID.TID 0001.0001) > &PARM02
(PID.TID 0001.0001) > cg2dMaxIters=200,
(PID.TID 0001.0001) >#cg2dTargetResidual=1.E-9,
(PID.TID 0001.0001) > cg2dTargetResWunit=1.E-14,
(PID.TID 0001.0001) > &end
(PID.TID 0001.0001) >
(PID.TID 0001.0001) ># Time stepping parameters
(PID.TID 0001.0001) > &PARM03
(PID.TID 0001.0001) > nIter0=72000,
(PID.TID 0001.0001) > nTimeSteps=20,
(PID.TID 0001.0001) > deltaTmom   =1200.,
(PID.TID 0001.0001) > deltaTtracer=86400.,
(PID.TID 0001.0001) > deltaTfreesurf=86400.,
(PID.TID 0001.0001) > deltaTClock =86400.,
(PID.TID 0001.0001) > abEps = 0.1,
(PID.TID 0001.0001) >#forcing_In_AB=.FALSE.,
(PID.TID 0001.0001) > tracForcingOutAB=1,
(PID.TID 0001.0001) > pChkptFreq  =1728000.,
(PID.TID 0001.0001) >#chkptFreq   =311040000.,
(PID.TID 0001.0001) > taveFreq    =1244160000.,
(PID.TID 0001.0001) > dumpFreq    =622080000.,
(PID.TID 0001.0001) > monitorFreq =31104000.,
(PID.TID 0001.0001) > periodicExternalForcing=.TRUE.,
(PID.TID 0001.0001) > externForcingPeriod=2592000.,
(PID.TID 0001.0001) > externForcingCycle=31104000.,
(PID.TID 0001.0001) ># 2 months restoring timescale for temperature
(PID.TID 0001.0001) > tauThetaClimRelax = 5184000.,
(PID.TID 0001.0001) ># 2yrs restoring timescale for salinity
(PID.TID 0001.0001) > tauSaltClimRelax = 62208000.,
(PID.TID 0001.0001) > monitorFreq =1.,
(PID.TID 0001.0001) > &end
(PID.TID 0001.0001) >
(PID.TID 0001.0001) ># Gridding parameters
(PID.TID 0001.0001) > &PARM04
(PID.TID 0001.0001) > usingCurvilinearGrid=.TRUE.,
(PID.TID 0001.0001) > horizGridFile='grid_cs32',
(PID.TID 0001.0001) > delR= 50., 70., 100., 140., 190.,
(PID.TID 0001.0001) >       240., 290., 340., 390., 440.,
(PID.TID 0001.0001) >       490., 540., 590., 640., 690.,
(PID.TID 0001.0001) > &end
(PID.TID 0001.0001) >
(PID.TID 0001.0001) ># Input datasets
(PID.TID 0001.0001) > &PARM05
(PID.TID 0001.0001) > bathyFile      ='bathy_Hmin50.bin',
(PID.TID 0001.0001) > hydrogThetaFile='lev_T_cs_15k.bin',
(PID.TID 0001.0001) > hydrogSaltFile ='lev_S_cs_15k.bin',
(PID.TID 0001.0001) > zonalWindFile  ='trenberth_taux.bin',
(PID.TID 0001.0001) > meridWindFile  ='trenberth_tauy.bin',
(PID.TID 0001.0001) > thetaClimFile  ='lev_surfT_cs_12m.bin',
(PID.TID 0001.0001) > saltClimFile   ='lev_surfS_cs_12m.bin',
(PID.TID 0001.0001) > surfQFile      ='shiQnet_cs32.bin',
(PID.TID 0001.0001) > EmPmRFile      ='shiEmPR_cs32.bin',
(PID.TID 0001.0001) > &end
(PID.TID 0001.0001) 
(PID.TID 0001.0001) S/R INI_PARMS ; starts to read PARM01
(PID.TID 0001.0001) S/R INI_PARMS ; read PARM01 : OK
(PID.TID 0001.0001) S/R INI_PARMS ; starts to read PARM02
(PID.TID 0001.0001) S/R INI_PARMS ; read PARM02 : OK
(PID.TID 0001.0001) S/R INI_PARMS ; starts to read PARM03
(PID.TID 0001.0001) S/R INI_PARMS ; read PARM03 : OK
(PID.TID 0001.0001) S/R INI_PARMS ; starts to read PARM04
(PID.TID 0001.0001) S/R INI_PARMS ; read PARM04 : OK
(PID.TID 0001.0001) S/R INI_PARMS ; starts to read PARM05
(PID.TID 0001.0001) S/R INI_PARMS ; read PARM05 : OK
(PID.TID 0001.0001)  PACKAGES_BOOT: opening data.pkg
(PID.TID 0001.0001)  OPEN_COPY_DATA_FILE: opening file data.pkg
(PID.TID 0001.0001) // =======================================================
(PID.TID 0001.0001) // Parameter file "data.pkg"
(PID.TID 0001.0001) // =======================================================
(PID.TID 0001.0001) ># Packages
(PID.TID 0001.0001) > &PACKAGES
(PID.TID 0001.0001) > useGMRedi=.TRUE.,
(PID.TID 0001.0001) >#useDiagnostics=.TRUE.,
(PID.TID 0001.0001) >#useMNC=.TRUE.,
(PID.TID 0001.0001) >#useBulkforce=.TRUE.,
(PID.TID 0001.0001) >#useThermSeaIce=.TRUE.,
(PID.TID 0001.0001) > &end
(PID.TID 0001.0001) 
(PID.TID 0001.0001)  PACKAGES_BOOT: finished reading data.pkg
(PID.TID 0001.0001)  GM_READPARMS: opening data.gmredi
(PID.TID 0001.0001)  OPEN_COPY_DATA_FILE: opening file data.gmredi
(PID.TID 0001.0001) // =======================================================
(PID.TID 0001.0001) // Parameter file "data.gmredi"
(PID.TID 0001.0001) // =======================================================
(PID.TID 0001.0001) ># GM+Redi package parameters:
(PID.TID 0001.0001) >
(PID.TID 0001.0001) >#-from MOM :
(PID.TID 0001.0001) ># GM_background_K: 	G & Mc.W  diffusion coefficient
(PID.TID 0001.0001) ># GM_maxSlope    :	max slope of isopycnals
(PID.TID 0001.0001) ># GM_Scrit       :	transition for scaling diffusion coefficient
(PID.TID 0001.0001) ># GM_Sd          :	half width scaling for diffusion coefficient
(PID.TID 0001.0001) ># GM_taper_scheme:	slope clipping or one of the tapering schemes
(PID.TID 0001.0001) ># GM_Kmin_horiz  :	horizontal diffusion minimum value
(PID.TID 0001.0001) >
(PID.TID 0001.0001) >#-Option parameters (needs to "define" options in GMREDI_OPTIONS.h")
(PID.TID 0001.0001) ># GM_isopycK     :	isopycnal diffusion coefficient (default=GM_background_K)
(PID.TID 0001.0001) ># GM_AdvForm     :	turn on GM Advective form       (default=Skew flux form)
(PID.TID 0001.0001) >
(PID.TID 0001.0001) > &GM_PARM01
(PID.TID 0001.0001) >  GM_background_K    = 800.,
(PID.TID 0001.0001) >  GM_taper_scheme    = 'gkw91',
(PID.TID 0001.0001) >  GM_maxSlope        = 1.e-2,
(PID.TID 0001.0001) >  GM_Kmin_horiz      = 50.,
(PID.TID 0001.0001) >  GM_Scrit           = 4.e-3,
(PID.TID 0001.0001) >  GM_Sd              = 1.e-3,
(PID.TID 0001.0001) ># GM_Visbeck_alpha   = 0.,
(PID.TID 0001.0001) ># GM_Visbeck_length  = 2.e+5,
(PID.TID 0001.0001) ># GM_Visbeck_depth   = 1.e+3,
(PID.TID 0001.0001) ># GM_Visbeck_maxval_K= 2.5e+3,
(PID.TID 0001.0001) > &end
(PID.TID 0001.0001) >
(PID.TID 0001.0001) >
(PID.TID 0001.0001) 
(PID.TID 0001.0001)  GM_READPARMS: finished reading data.gmredi
(PID.TID 0001.0001) SET_PARMS: done
(PID.TID 0001.0001) Enter INI_VERTICAL_GRID: setInterFDr=    T ; setCenterDr=    F
(PID.TID 0001.0001) tile:   2 ; Read from file grid_cs32.face002.bin
(PID.TID 0001.0001)   => xC yC dxF dyF rA xG yG dxV dyU rAz dxC dyC rAw rAs dxG dyG AngleCS AngleSN
(PID.TID 0001.0001) %MON XC_max                       =   1.7854351589505E+02
(PID.TID 0001.0001) %MON XC_min                       =  -1.7854351589505E+02
(PID.TID 0001.0001) %MON XC_mean                      =  -7.1054273576010E-15
(PID.TID 0001.0001) %MON XC_sd                        =   1.0355545336287E+02
(PID.TID 0001.0001) %MON XG_max                       =   1.8000000000000E+02
(PID.TID 0001.0001) %MON XG_min                       =  -1.7708797161002E+02
(PID.TID 0001.0001) %MON XG_mean                      =   1.8796250616675E+00
(PID.TID 0001.0001) %MON XG_sd                        =   1.0410625309932E+02
(PID.TID 0001.0001) %MON DXC_max                      =   3.2375185836900E+05
(PID.TID 0001.0001) %MON DXC_min                      =   1.1142031410131E+05
(PID.TID 0001.0001) %MON DXC_mean                     =   2.8605689051214E+05
(PID.TID 0001.0001) %MON DXC_sd                       =   3.4042087138252E+04
(PID.TID 0001.0001) %MON DXF_max                      =   3.2369947500827E+05
(PID.TID 0001.0001) %MON DXF_min                      =   1.2020820513318E+05
(PID.TID 0001.0001) %MON DXF_mean                     =   2.8605437324820E+05
(PID.TID 0001.0001) %MON DXF_sd                       =   3.4050524252539E+04
(PID.TID 0001.0001) %MON DXG_max                      =   3.2375195872773E+05
(PID.TID 0001.0001) %MON DXG_min                      =   1.0098378008791E+05
(PID.TID 0001.0001) %MON DXG_mean                     =   2.8603818508931E+05
(PID.TID 0001.0001) %MON DXG_sd                       =   3.4140406908005E+04
(PID.TID 0001.0001) %MON DXV_max                      =   3.2380418162750E+05
(PID.TID 0001.0001) %MON DXV_min                      =   8.0152299824136E+04
(PID.TID 0001.0001) %MON DXV_mean                     =   2.8603970633619E+05
(PID.TID 0001.0001) %MON DXV_sd                       =   3.4145142117723E+04
(PID.TID 0001.0001) %MON YC_max                       =   8.7940663871962E+01
(PID.TID 0001.0001) %MON YC_min                       =  -8.7940663871962E+01
(PID.TID 0001.0001) %MON YC_mean                      =   0.0000000000000E+00
(PID.TID 0001.0001) %MON YC_sd                        =   3.8676242969072E+01
(PID.TID 0001.0001) %MON YG_max                       =   9.0000000000000E+01
(PID.TID 0001.0001) %MON YG_min                       =  -9.0000000000000E+01
(PID.TID 0001.0001) %MON YG_mean                      =   1.2094344438470E-15
(PID.TID 0001.0001) %MON YG_sd                        =   3.9086186579984E+01
(PID.TID 0001.0001) %MON DYC_max                      =   3.2375185836900E+05
(PID.TID 0001.0001) %MON DYC_min                      =   1.1142031410131E+05
(PID.TID 0001.0001) %MON DYC_mean                     =   2.8605689051214E+05
(PID.TID 0001.0001) %MON DYC_sd                       =   3.4042087138252E+04
(PID.TID 0001.0001) %MON DYF_max                      =   3.2369947500827E+05
(PID.TID 0001.0001) %MON DYF_min                      =   1.2020820513318E+05
(PID.TID 0001.0001) %MON DYF_mean                     =   2.8605437324820E+05
(PID.TID 0001.0001) %MON DYF_sd                       =   3.4050524252539E+04
(PID.TID 0001.0001) %MON DYG_max                      =   3.2375195872773E+05
(PID.TID 0001.0001) %MON DYG_min                      =   1.0098378008791E+05
(PID.TID 0001.0001) %MON DYG_mean                     =   2.8603818508931E+05
(PID.TID 0001.0001) %MON DYG_sd                       =   3.4140406908005E+04
(PID.TID 0001.0001) %MON DYU_max                      =   3.2380418162750E+05
(PID.TID 0001.0001) %MON DYU_min                      =   8.0152299824136E+04
(PID.TID 0001.0001) %MON DYU_mean                     =   2.8603970633619E+05
(PID.TID 0001.0001) %MON DYU_sd                       =   3.4145142117723E+04
(PID.TID 0001.0001) %MON RA_max                       =   1.0479260248419E+11
(PID.TID 0001.0001) %MON RA_min                       =   1.4019007022556E+10
(PID.TID 0001.0001) %MON RA_mean                      =   8.2992246709265E+10
(PID.TID 0001.0001) %MON RA_sd                        =   1.7509089299457E+10
(PID.TID 0001.0001) %MON RAW_max                      =   1.0480965274559E+11
(PID.TID 0001.0001) %MON RAW_min                      =   1.2166903467143E+10
(PID.TID 0001.0001) %MON RAW_mean                     =   8.2992246709235E+10
(PID.TID 0001.0001) %MON RAW_sd                       =   1.7481917919656E+10
(PID.TID 0001.0001) %MON RAS_max                      =   1.0480965274559E+11
(PID.TID 0001.0001) %MON RAS_min                      =   1.2166903467143E+10
(PID.TID 0001.0001) %MON RAS_mean                     =   8.2992246709235E+10
(PID.TID 0001.0001) %MON RAS_sd                       =   1.7481917919656E+10
(PID.TID 0001.0001) %MON RAZ_max                      =   1.0484349334619E+11
(PID.TID 0001.0001) %MON RAZ_min                      =   8.8317900612505E+09
(PID.TID 0001.0001) %MON RAZ_mean                     =   8.2992246709235E+10
(PID.TID 0001.0001) %MON RAZ_sd                       =   1.7482297311044E+10
(PID.TID 0001.0001) %MON AngleCS_max                  =   9.9999994756719E-01
(PID.TID 0001.0001) %MON AngleCS_min                  =  -9.9968286884824E-01
(PID.TID 0001.0001) %MON AngleCS_mean                 =   3.3078850405987E-01
(PID.TID 0001.0001) %MON AngleCS_sd                   =   6.2496317138039E-01
(PID.TID 0001.0001) %MON AngleSN_max                  =   9.9968286884824E-01
(PID.TID 0001.0001) %MON AngleSN_min                  =  -9.9999994756719E-01
(PID.TID 0001.0001) %MON AngleSN_mean                 =  -3.3078850405987E-01
(PID.TID 0001.0001) %MON AngleSN_sd                   =   6.2496317138039E-01
(PID.TID 0001.0001)  MDS_READ_FIELD: opening global file: bathy_Hmin50.bin
(PID.TID 0001.0001) // =======================================================
(PID.TID 0001.0001) // Field Model R_low (ini_masks_etc) at iteration          1
(PID.TID 0001.0001) // CMIN =         -5.200000000000000E+03
(PID.TID 0001.0001) // CMAX =         -5.000000000000000E+01
(PID.TID 0001.0001) // CINT =          1.907407407407407E+02
(PID.TID 0001.0001) // SYMBOLS (CMIN->CMAX): -abcdefghijklmnopqrstuvwxyz+
(PID.TID 0001.0001) //                  0.0: .
(PID.TID 0001.0001) // RANGE I (Lo:Hi:Step):(  30:  67:   1)
(PID.TID 0001.0001) // RANGE J (Lo:Hi:Step):(  35:  -2:  -1)
(PID.TID 0001.0001) // RANGE K (Lo:Hi:Step):(   1:   1:   1)
(PID.TID 0001.0001) // =======================================================
(PID.TID 0001.0001) K =   1
(PID.TID 0001.0001) //                I=39      I=49      I=59
(PID.TID 0001.0001) // |--J--|012345678|012345678|012345678|01234567
(PID.TID 0001.0001) //     35 ...............................kqnzrqq
(PID.TID 0001.0001) //     34 ..............................vkqn+xnn
(PID.TID 0001.0001) //     33 ..............................xsrxzz+z
(PID.TID 0001.0001) //     32 ............................++..u+....
(PID.TID 0001.0001) //     31 ............................+++++.ztsv
(PID.TID 0001.0001) //     30 ............................+++++wmegt
(PID.TID 0001.0001) //     29 .............................+++yqddhp
(PID.TID 0001.0001) //     28 .............................++zwgfcfk
(PID.TID 0001.0001) //     27 ......+++....................++vnbbbcl
(PID.TID 0001.0001) //     26 ......++sy...................+tq-fdbbl
(PID.TID 0001.0001) //     25 w.......njo+................+x-----bcg
(PID.TID 0001.0001) //     24 w.......likn+.....++.....++znpa----bbd
(PID.TID 0001.0001) //     23 zz.....nhhijz....tqq.....+ujgzgd---abc
(PID.TID 0001.0001) //     22 .zz..rnjffggm...nlmn+....+sffzya--aabc
(PID.TID 0001.0001) //     21 ..ysstlgeeeeoz..ijklt+....lfjzzf---adf
(PID.TID 0001.0001) //     20 .....lcgfdddhq.+hiilnz++.+oquxyz--adgk
(PID.TID 0001.0001) //     19 .....aafifccgnrzgghjry.+++sr+lq.--edfk
(PID.TID 0001.0001) //     18 ....jaacfihggokeeffgt..++++..hhlfdeddk
(PID.TID 0001.0001) //     17 ...icaaccfihfoedddeedy..++...nnqwgfeek
(PID.TID 0001.0001) //     16 ..jdbaddddgifkccccdccd+.++..++ynvz.tkk
(PID.TID 0001.0001) //     15 .sfcbbngfffigcaaabdbcac+.+++++zgmpx...
(PID.TID 0001.0001) //     14 .ofddchohffikaaaaabaaa-aw+.+ysnggox++.
(PID.TID 0001.0001) //     13 .nhfdffholghkaaaaaba-a---flkkuswyy++++
(PID.TID 0001.0001) //     12 .skiqddeiiiifaaabae--a---dd--iu+++.+++
(PID.TID 0001.0001) //     11 .nkn.fdemijidaaaabi-------a--q+....++.
(PID.TID 0001.0001) //     10 uos..dcemikkfdcaabi-------equ+........
(PID.TID 0001.0001) //      9 nnv.+ccffhkkiddaadha-----as++.........
(PID.TID 0001.0001) //      8 kky.jceddefijffdddhb--a-afv...........
(PID.TID 0001.0001) //      7 iht.faaaabdgijgfededcdcb-f+...........
(PID.TID 0001.0001) //      6 deisc----dfefgifffkklldc--v...........
(PID.TID 0001.0001) //      5 bcimlaaacfbddfjjhijeehf-a-c...........
(PID.TID 0001.0001) //      4 bdopfcbdgdbcdehlihgfddc--ms...........
(PID.TID 0001.0001) //      3 aesphfdhgabddeflihhgfecbaaayq+++++....
(PID.TID 0001.0001) //      2 aesqhffiea-cdeflkkljifeddcba---bry+...
(PID.TID 0001.0001) //      1 afonhglid--adfgkkkklkhffddca-----s++++
(PID.TID 0001.0001) //      0 fkllilmgebaadfijjiiikjhffdcba-----lllg
(PID.TID 0001.0001) //     -1 kiikimiiheccfurkiffhijjigfecb-----l---
(PID.TID 0001.0001) //     -2 lmlfklklkhednwwsheeghhijjgfdca----g---
(PID.TID 0001.0001) // =======================================================
(PID.TID 0001.0001) // END OF FIELD                                          =
(PID.TID 0001.0001) // =======================================================
(PID.TID 0001.0001) 
(PID.TID 0001.0001) // =======================================================
(PID.TID 0001.0001) // Field Model Ro_surf (ini_masks_etc) at iteration          1
(PID.TID 0001.0001) // CMIN =         -7.105427357601002E-15
(PID.TID 0001.0001) // CMAX =         -7.105427357601002E-15
(PID.TID 0001.0001) // CINT =          0.000000000000000E+00
(PID.TID 0001.0001) // SYMBOLS (CMIN->CMAX): -abcdefghijklmnopqrstuvwxyz+
(PID.TID 0001.0001) //                  0.0: .
(PID.TID 0001.0001) // RANGE I (Lo:Hi:Step):(  30:  67:   1)
(PID.TID 0001.0001) // RANGE J (Lo:Hi:Step):(  35:  -2:  -1)
(PID.TID 0001.0001) // RANGE K (Lo:Hi:Step):(   1:   1:   1)
(PID.TID 0001.0001) // =======================================================
(PID.TID 0001.0001) // =======================================================
(PID.TID 0001.0001) // END OF FIELD                                          =
(PID.TID 0001.0001) // =======================================================
(PID.TID 0001.0001) 
(PID.TID 0001.0001) // =======================================================
(PID.TID 0001.0001) // Field hFacC at iteration          1
(PID.TID 0001.0001) // CMIN =          1.000000000000000E+00
(PID.TID 0001.0001) // CMAX =          1.000000000000000E+00
(PID.TID 0001.0001) // CINT =          0.000000000000000E+00
(PID.TID 0001.0001) // SYMBOLS (CMIN->CMAX): -abcdefghijklmnopqrstuvwxyz+
(PID.TID 0001.0001) //                  0.0: .
(PID.TID 0001.0001) // RANGE I (Lo:Hi:Step):(  30:  67:   1)
(PID.TID 0001.0001) // RANGE J (Lo:Hi:Step):(  35:  -2:  -1)
(PID.TID 0001.0001) // RANGE K (Lo:Hi:Step):(   1:   1:   1)
(PID.TID 0001.0001) // =======================================================
(PID.TID 0001.0001) // =======================================================
(PID.TID 0001.0001) // END OF FIELD                                          =
(PID.TID 0001.0001) // =======================================================
(PID.TID 0001.0001) 
(PID.TID 0001.0001) // =======================================================
(PID.TID 0001.0001) // Field hFacW at iteration          1
(PID.TID 0001.0001) // CMIN =          1.000000000000000E+00
(PID.TID 0001.0001) // CMAX =          1.000000000000000E+00
(PID.TID 0001.0001) // CINT =          0.000000000000000E+00
(PID.TID 0001.0001) // SYMBOLS (CMIN->CMAX): -abcdefghijklmnopqrstuvwxyz+
(PID.TID 0001.0001) //                  0.0: .
(PID.TID 0001.0001) // RANGE I (Lo:Hi:Step):(  30:  67:   1)
(PID.TID 0001.0001) // RANGE J (Lo:Hi:Step):(  35:  -2:  -1)
(PID.TID 0001.0001) // RANGE K (Lo:Hi:Step):(   1:   1:   1)
(PID.TID 0001.0001) // =======================================================
(PID.TID 0001.0001) // =======================================================
(PID.TID 0001.0001) // END OF FIELD                                          =
(PID.TID 0001.0001) // =======================================================
(PID.TID 0001.0001) 
(PID.TID 0001.0001) // =======================================================
(PID.TID 0001.0001) // Field hFacS at iteration          1
(PID.TID 0001.0001) // CMIN =          1.000000000000000E+00
(PID.TID 0001.0001) // CMAX =          1.000000000000000E+00
(PID.TID 0001.0001) // CINT =          0.000000000000000E+00
(PID.TID 0001.0001) // SYMBOLS (CMIN->CMAX): -abcdefghijklmnopqrstuvwxyz+
(PID.TID 0001.0001) //                  0.0: .
(PID.TID 0001.0001) // RANGE I (Lo:Hi:Step):(  30:  67:   1)
(PID.TID 0001.0001) // RANGE J (Lo:Hi:Step):(  35:  -2:  -1)
(PID.TID 0001.0001) // RANGE K (Lo:Hi:Step):(   1:   1:   1)
(PID.TID 0001.0001) // =======================================================
(PID.TID 0001.0001) // =======================================================
(PID.TID 0001.0001) // END OF FIELD                                          =
(PID.TID 0001.0001) // =======================================================
(PID.TID 0001.0001) 
(PID.TID 0001.0001) 
(PID.TID 0001.0001) // ===================================
(PID.TID 0001.0001) // GAD parameters :
(PID.TID 0001.0001) // ===================================
(PID.TID 0001.0001) tempAdvScheme =   /* Temp. Horiz.Advection scheme selector */
(PID.TID 0001.0001)                       2
(PID.TID 0001.0001)     ;
(PID.TID 0001.0001) tempVertAdvScheme =   /* Temp. Vert. Advection scheme selector */
(PID.TID 0001.0001)                       2
(PID.TID 0001.0001)     ;
(PID.TID 0001.0001) tempMultiDimAdvec =   /* use Muti-Dim Advec method for Temp */
(PID.TID 0001.0001)                   F
(PID.TID 0001.0001)     ;
(PID.TID 0001.0001) tempSOM_Advection = /* use 2nd Order Moment Advection for Temp */
(PID.TID 0001.0001)                   F
(PID.TID 0001.0001)     ;
(PID.TID 0001.0001) AdamsBashforthGt = /* apply Adams-Bashforth extrapolation on Gt */
(PID.TID 0001.0001)                   T
(PID.TID 0001.0001)     ;
(PID.TID 0001.0001) AdamsBashforth_T = /* apply Adams-Bashforth extrapolation on Temp */
(PID.TID 0001.0001)                   F
(PID.TID 0001.0001)     ;
(PID.TID 0001.0001) saltAdvScheme =   /* Salt. Horiz.advection scheme selector */
(PID.TID 0001.0001)                       2
(PID.TID 0001.0001)     ;
(PID.TID 0001.0001) saltVertAdvScheme =   /* Salt. Vert. Advection scheme selector */
(PID.TID 0001.0001)                       2
(PID.TID 0001.0001)     ;
(PID.TID 0001.0001) saltMultiDimAdvec =   /* use Muti-Dim Advec method for Salt */
(PID.TID 0001.0001)                   F
(PID.TID 0001.0001)     ;
(PID.TID 0001.0001) saltSOM_Advection = /* use 2nd Order Moment Advection for Salt */
(PID.TID 0001.0001)                   F
(PID.TID 0001.0001)     ;
(PID.TID 0001.0001) AdamsBashforthGs = /* apply Adams-Bashforth extrapolation on Gs */
(PID.TID 0001.0001)                   T
(PID.TID 0001.0001)     ;
(PID.TID 0001.0001) AdamsBashforth_S = /* apply Adams-Bashforth extrapolation on Salt */
(PID.TID 0001.0001)                   F
(PID.TID 0001.0001)     ;
(PID.TID 0001.0001) // ===================================
(PID.TID 0001.0001) GAD_CHECK: #define ALLOW_GENERIC_ADVDIFF
(PID.TID 0001.0001) GMREDI_CHECK: #define GMREDI
(PID.TID 0001.0001) GM_AdvForm =  /* if FALSE => use SkewFlux Form */
(PID.TID 0001.0001)                   F
(PID.TID 0001.0001)     ;
(PID.TID 0001.0001) GM_AdvSeparate = /* Calc Bolus & Euler Adv. separately */
(PID.TID 0001.0001)                   F
(PID.TID 0001.0001)     ;
(PID.TID 0001.0001) GM_ExtraDiag =  /* Tensor Extra Diag (line 1&2) non 0 */
(PID.TID 0001.0001)                   F
(PID.TID 0001.0001)     ;
(PID.TID 0001.0001) GM_isopycK =   /* Background Isopyc. Diffusivity ( m^2/s ) */
(PID.TID 0001.0001)                 8.000000000000000E+02
(PID.TID 0001.0001)     ;
(PID.TID 0001.0001)  GM_skewflx*K =   /* Background GM_SkewFlx Diffusivity ( m^2/s ) */
(PID.TID 0001.0001)                 8.000000000000000E+02
(PID.TID 0001.0001)     ;
(PID.TID 0001.0001)  GM_advec*K =   /* Backg. GM-Advec(=Bolus) Diffusivity ( m^2/s ) */
(PID.TID 0001.0001)                 0.000000000000000E+00
(PID.TID 0001.0001)     ;
(PID.TID 0001.0001)  GM_Visbeck_alpha =   /* Visbeck alpha coeff. ( ) */
(PID.TID 0001.0001)                 0.000000000000000E+00
(PID.TID 0001.0001)     ;
(PID.TID 0001.0001)  Tapering/Cliping : gkw91
(PID.TID 0001.0001)  GM_Small_Number =  /* epsilon used in slope calc */
(PID.TID 0001.0001)                 1.000000000000000E-12
(PID.TID 0001.0001)     ;
(PID.TID 0001.0001)  GM_slopeSqCutoff =  /* Slope^2 cut-off value */
(PID.TID 0001.0001)                 1.000000000000000E+48
(PID.TID 0001.0001)     ;
(PID.TID 0001.0001) %MON fCori_max                    =   1.4535016908525E-04
(PID.TID 0001.0001) %MON fCori_min                    =  -1.4535016908525E-04
(PID.TID 0001.0001) %MON fCori_mean                   =   0.0000000000000E+00
(PID.TID 0001.0001) %MON fCori_sd                     =   8.3972192788621E-05
(PID.TID 0001.0001) %MON fCoriG_max                   =   1.4544410433286E-04
(PID.TID 0001.0001) %MON fCoriG_min                   =  -1.4544410433286E-04
(PID.TID 0001.0001) %MON fCoriG_mean                  =   0.0000000000000E+00
(PID.TID 0001.0001) %MON fCoriG_sd                    =   8.4860812167727E-05
(PID.TID 0001.0001) %MON fCoriCos_max                 =   1.4540341538469E-04
(PID.TID 0001.0001) %MON fCoriCos_min                 =   5.2264550201501E-06
(PID.TID 0001.0001) %MON fCoriCos_mean                =   1.1482595466044E-04
(PID.TID 0001.0001) %MON fCoriCos_sd                  =   3.0292878037194E-05
(PID.TID 0001.0001) INI_CG2D: CG2D normalisation factor =  1.9156564154949553E-04
(PID.TID 0001.0001) INI_CG2D: cg2dTolerance = 5.809016360175293E-07 (Area=3.6388673751E+14)
(PID.TID 0001.0001) 
(PID.TID 0001.0001) CONFIG_CHECK: OK
(PID.TID 0001.0001) // =======================================================
(PID.TID 0001.0001) // Model configuration
(PID.TID 0001.0001) // =======================================================
(PID.TID 0001.0001) //
(PID.TID 0001.0001) // "Physical" paramters ( PARM01 in namelist )
(PID.TID 0001.0001) //
(PID.TID 0001.0001) buoyancyRelation = OCEANIC
(PID.TID 0001.0001) fluidIsAir  =  /* fluid major constituent is Air */
(PID.TID 0001.0001)                   F
(PID.TID 0001.0001)     ;
(PID.TID 0001.0001) fluidIsWater=  /* fluid major constituent is Water */
(PID.TID 0001.0001)                   T
(PID.TID 0001.0001)     ;
(PID.TID 0001.0001) usingPCoords =  /* use p (or p*) vertical coordinate */
(PID.TID 0001.0001)                   F
(PID.TID 0001.0001)     ;
(PID.TID 0001.0001) usingZCoords =  /* use z (or z*) vertical coordinate */
(PID.TID 0001.0001)                   T
(PID.TID 0001.0001)     ;
(PID.TID 0001.0001) tRef =   /* Reference temperature profile ( oC or K ) */
(PID.TID 0001.0001)    15 @  2.000000000000000E+01              /* K =  1: 15 */
(PID.TID 0001.0001)     ;
(PID.TID 0001.0001) sRef =   /* Reference salinity profile ( psu ) */
(PID.TID 0001.0001)    15 @  3.500000000000000E+01              /* K =  1: 15 */
(PID.TID 0001.0001)     ;
(PID.TID 0001.0001) viscAh =   /* Lateral eddy viscosity ( m^2/s ) */
(PID.TID 0001.0001)                 3.000000000000000E+05
(PID.TID 0001.0001)     ;
(PID.TID 0001.0001) viscAhMax =   /* Maximum lateral eddy viscosity ( m^2/s ) */
(PID.TID 0001.0001)                 1.000000000000000E+21
(PID.TID 0001.0001)     ;
(PID.TID 0001.0001) viscAhGrid =   /* Grid dependent lateral eddy viscosity ( non-dim. ) */
(PID.TID 0001.0001)                 0.000000000000000E+00
(PID.TID 0001.0001)     ;
(PID.TID 0001.0001) useFullLeith =   /* Use Full Form of Leith Viscosity on/off flag*/
(PID.TID 0001.0001)                   F
(PID.TID 0001.0001)     ;
(PID.TID 0001.0001) useStrainTensionVisc =   /* Use StrainTension Form of Viscous Operator on/off flag*/
(PID.TID 0001.0001)                   F
(PID.TID 0001.0001)     ;
(PID.TID 0001.0001) useAreaViscLength =   /* Use area for visc length instead of geom. mean*/
(PID.TID 0001.0001)                   F
(PID.TID 0001.0001)     ;
(PID.TID 0001.0001) viscC2leith = /* Leith harmonic visc. factor (on grad(vort),non-dim.) */
(PID.TID 0001.0001)                 0.000000000000000E+00
(PID.TID 0001.0001)     ;
(PID.TID 0001.0001) viscC2leithD = /* Leith harmonic viscosity factor (on grad(div),non-dim.) */
(PID.TID 0001.0001)                 0.000000000000000E+00
(PID.TID 0001.0001)     ;
(PID.TID 0001.0001) viscC2smag =   /* Smagorinsky harmonic viscosity factor (non-dim.) */
(PID.TID 0001.0001)                 0.000000000000000E+00
(PID.TID 0001.0001)     ;
(PID.TID 0001.0001) viscA4 =   /* Lateral biharmonic viscosity ( m^4/s ) */
(PID.TID 0001.0001)                 0.000000000000000E+00
(PID.TID 0001.0001)     ;
(PID.TID 0001.0001) viscA4Max =   /* Maximum biharmonic viscosity ( m^2/s ) */
(PID.TID 0001.0001)                 1.000000000000000E+21
(PID.TID 0001.0001)     ;
(PID.TID 0001.0001) viscA4Grid =   /* Grid dependent biharmonic viscosity ( non-dim. ) */
(PID.TID 0001.0001)                 0.000000000000000E+00
(PID.TID 0001.0001)     ;
(PID.TID 0001.0001) viscC4leith = /* Leith biharm viscosity factor (on grad(vort), non-dim.) */
(PID.TID 0001.0001)                 0.000000000000000E+00
(PID.TID 0001.0001)     ;
(PID.TID 0001.0001) viscC4leithD = /* Leith biharm viscosity factor (on grad(div), non-dim.) */
(PID.TID 0001.0001)                 0.000000000000000E+00
(PID.TID 0001.0001)     ;
(PID.TID 0001.0001) viscC4Smag = /* Smagorinsky biharm viscosity factor (non-dim) */
(PID.TID 0001.0001)                 0.000000000000000E+00
(PID.TID 0001.0001)     ;
(PID.TID 0001.0001) no_slip_sides =  /* Viscous BCs: No-slip sides */
(PID.TID 0001.0001)                   T
(PID.TID 0001.0001)     ;
(PID.TID 0001.0001) sideDragFactor = /* side-drag scaling factor (non-dim) */
(PID.TID 0001.0001)                 2.000000000000000E+00
(PID.TID 0001.0001)     ;
(PID.TID 0001.0001) viscAr =   /* Vertical eddy viscosity ( units of r^2/s ) */
(PID.TID 0001.0001)                 1.000000000000000E-03
(PID.TID 0001.0001)     ;
(PID.TID 0001.0001) no_slip_bottom =  /* Viscous BCs: No-slip bottom */
(PID.TID 0001.0001)                   T
(PID.TID 0001.0001)     ;
(PID.TID 0001.0001) bottomDragLinear = /* linear bottom-drag coefficient ( 1/s ) */
(PID.TID 0001.0001)                 0.000000000000000E+00
(PID.TID 0001.0001)     ;
(PID.TID 0001.0001) bottomDragQuadratic = /* quadratic bottom-drag coeff. ( 1/m ) */
(PID.TID 0001.0001)                 0.000000000000000E+00
(PID.TID 0001.0001)     ;
(PID.TID 0001.0001) diffKhT =   /* Laplacian diffusion of heat laterally ( m^2/s ) */
(PID.TID 0001.0001)                 0.000000000000000E+00
(PID.TID 0001.0001)     ;
(PID.TID 0001.0001) diffK4T =   /* Bihaarmonic diffusion of heat laterally ( m^4/s ) */
(PID.TID 0001.0001)                 0.000000000000000E+00
(PID.TID 0001.0001)     ;
(PID.TID 0001.0001) diffKhS =   /* Laplacian diffusion of salt laterally ( m^2/s ) */
(PID.TID 0001.0001)                 0.000000000000000E+00
(PID.TID 0001.0001)     ;
(PID.TID 0001.0001) diffK4S =   /* Bihaarmonic diffusion of salt laterally ( m^4/s ) */
(PID.TID 0001.0001)                 0.000000000000000E+00
(PID.TID 0001.0001)     ;
(PID.TID 0001.0001) diffKrNrT = /* vertical profile of vertical diffusion of Temp ( m^2/s )*/
(PID.TID 0001.0001)    15 @  3.000000000000000E-05              /* K =  1: 15 */
(PID.TID 0001.0001)     ;
(PID.TID 0001.0001) diffKrNrS = /* vertical profile of vertical diffusion of Salt ( m^2/s )*/
(PID.TID 0001.0001)    15 @  3.000000000000000E-05              /* K =  1: 15 */
(PID.TID 0001.0001)     ;
(PID.TID 0001.0001) diffKrBL79surf =   /* Surface diffusion for Bryan and Lewis 1979 ( m^2/s ) */
(PID.TID 0001.0001)                 0.000000000000000E+00
(PID.TID 0001.0001)     ;
(PID.TID 0001.0001) diffKrBL79deep =   /* Deep diffusion for Bryan and Lewis 1979 ( m^2/s ) */
(PID.TID 0001.0001)                 0.000000000000000E+00
(PID.TID 0001.0001)     ;
(PID.TID 0001.0001) diffKrBL79scl =   /* Depth scale for Bryan and Lewis 1979 ( m ) */
(PID.TID 0001.0001)                 2.000000000000000E+02
(PID.TID 0001.0001)     ;
(PID.TID 0001.0001) diffKrBL79Ho =   /* Turning depth for Bryan and Lewis 1979 ( m ) */
(PID.TID 0001.0001)                -2.000000000000000E+03
(PID.TID 0001.0001)     ;
(PID.TID 0001.0001) Equation of State : eosType = JMD95Z ;
(PID.TID 0001.0001) tAlpha =   /* Linear EOS thermal expansion coefficient ( 1/oC ) */
(PID.TID 0001.0001)                 1.234567000000000E+05
(PID.TID 0001.0001)     ;
(PID.TID 0001.0001) sBeta =   /* Linear EOS haline contraction coefficient ( 1/psu ) */
(PID.TID 0001.0001)                 1.234567000000000E+05
(PID.TID 0001.0001)     ;
(PID.TID 0001.0001) rhonil =   /* Reference density ( kg/m^3 ) */
(PID.TID 0001.0001)                 1.035000000000000E+03
(PID.TID 0001.0001)     ;
(PID.TID 0001.0001) rhoConst =   /* Reference density ( kg/m^3 ) */
(PID.TID 0001.0001)                 1.035000000000000E+03
(PID.TID 0001.0001)     ;
(PID.TID 0001.0001) rhoFacC = /* normalized Reference density @ cell-Center (-) */
(PID.TID 0001.0001)    15 @  1.000000000000000E+00              /* K =  1: 15 */
(PID.TID 0001.0001)     ;
(PID.TID 0001.0001) rhoFacF = /* normalized Reference density @ W-Interface (-) */
(PID.TID 0001.0001)    16 @  1.000000000000000E+00              /* K =  1: 16 */
(PID.TID 0001.0001)     ;
(PID.TID 0001.0001) rhoConstFresh =   /* Reference density ( kg/m^3 ) */
(PID.TID 0001.0001)                 1.000000000000000E+03
(PID.TID 0001.0001)     ;
(PID.TID 0001.0001) gravity =   /* Gravitational acceleration ( m/s^2 ) */
(PID.TID 0001.0001)                 9.810000000000000E+00
(PID.TID 0001.0001)     ;
(PID.TID 0001.0001) gBaro =   /* Barotropic gravity ( m/s^2 ) */
(PID.TID 0001.0001)                 9.810000000000000E+00
(PID.TID 0001.0001)     ;
(PID.TID 0001.0001) rotationPeriod =   /* Rotation Period ( s ) */
(PID.TID 0001.0001)                 8.640000000000000E+04
(PID.TID 0001.0001)     ;
(PID.TID 0001.0001) omega =   /* Angular velocity ( rad/s ) */
(PID.TID 0001.0001)                 7.272205216643040E-05
(PID.TID 0001.0001)     ;
(PID.TID 0001.0001) f0 =   /* Reference coriolis parameter ( 1/s ) */
(PID.TID 0001.0001)                 1.000000000000000E-04
(PID.TID 0001.0001)     ;
(PID.TID 0001.0001) beta =   /* Beta ( 1/(m.s) ) */
(PID.TID 0001.0001)                 9.999999999999999E-12
(PID.TID 0001.0001)     ;
(PID.TID 0001.0001) freeSurfFac =   /* Implicit free surface factor */
(PID.TID 0001.0001)                 1.000000000000000E+00
(PID.TID 0001.0001)     ;
(PID.TID 0001.0001) implicitFreeSurface =   /* Implicit free surface on/off flag */
(PID.TID 0001.0001)                   T
(PID.TID 0001.0001)     ;
(PID.TID 0001.0001) rigidLid =   /* Rigid lid on/off flag */
(PID.TID 0001.0001)                   F
(PID.TID 0001.0001)     ;
(PID.TID 0001.0001) implicSurfPress =   /* Surface Pressure implicit factor (0-1)*/
(PID.TID 0001.0001)                 1.000000000000000E+00
(PID.TID 0001.0001)     ;
(PID.TID 0001.0001) implicDiv2Dflow =   /* Barot. Flow Div. implicit factor (0-1)*/
(PID.TID 0001.0001)                 1.000000000000000E+00
(PID.TID 0001.0001)     ;
(PID.TID 0001.0001) exactConserv =   /* Exact Volume Conservation on/off flag*/
(PID.TID 0001.0001)                   T
(PID.TID 0001.0001)     ;
(PID.TID 0001.0001) linFSConserveTr =   /* Tracer correction for Lin Free Surface on/off flag*/
(PID.TID 0001.0001)                   F
(PID.TID 0001.0001)     ;
(PID.TID 0001.0001) uniformLin_PhiSurf =   /* use uniform Bo_surf on/off flag*/
(PID.TID 0001.0001)                   T
(PID.TID 0001.0001)     ;
(PID.TID 0001.0001) nonlinFreeSurf =   /* Non-linear Free Surf. options (-1,0,1,2,3)*/
(PID.TID 0001.0001)                       4
(PID.TID 0001.0001)     ;
(PID.TID 0001.0001)      -1,0= Off ; 1,2,3= On, 2=+rescale gU,gV, 3=+update cg2d solv.
(PID.TID 0001.0001) hFacInf =   /* lower threshold for hFac (nonlinFreeSurf only)*/
(PID.TID 0001.0001)                 2.000000000000000E-01
(PID.TID 0001.0001)     ;
(PID.TID 0001.0001) hFacSup =   /* upper threshold for hFac (nonlinFreeSurf only)*/
(PID.TID 0001.0001)                 2.000000000000000E+00
(PID.TID 0001.0001)     ;
(PID.TID 0001.0001) select_rStar =   /* r* Coordinate options (not yet implemented)*/
(PID.TID 0001.0001)                       2
(PID.TID 0001.0001)     ;
(PID.TID 0001.0001) useRealFreshWaterFlux =   /* Real Fresh Water Flux on/off flag*/
(PID.TID 0001.0001)                   T
(PID.TID 0001.0001)     ;
(PID.TID 0001.0001) temp_EvPrRn = /* Temp. of Evap/Prec/R (UNSET=use local T)(oC)*/
(PID.TID 0001.0001)                 1.234567000000000E+05
(PID.TID 0001.0001)     ;
(PID.TID 0001.0001) salt_EvPrRn = /* Salin. of Evap/Prec/R (UNSET=use local S)(ppt)*/
(PID.TID 0001.0001)                 0.000000000000000E+00
(PID.TID 0001.0001)     ;
(PID.TID 0001.0001) use3Dsolver = /* use 3-D pressure solver on/off flag */
(PID.TID 0001.0001)                   F
(PID.TID 0001.0001)     ;
(PID.TID 0001.0001) nonHydrostatic =  /* Non-Hydrostatic on/off flag */
(PID.TID 0001.0001)                   F
(PID.TID 0001.0001)     ;
(PID.TID 0001.0001) nh_Am2 = /* Non-Hydrostatic terms scaling factor */
(PID.TID 0001.0001)                 1.000000000000000E+00
(PID.TID 0001.0001)     ;
(PID.TID 0001.0001) quasiHydrostatic = /* Quasi-Hydrostatic on/off flag */
(PID.TID 0001.0001)                   F
(PID.TID 0001.0001)     ;
(PID.TID 0001.0001) momStepping =  /* Momentum equation on/off flag */
(PID.TID 0001.0001)                   T
(PID.TID 0001.0001)     ;
(PID.TID 0001.0001) vectorInvariantMomentum= /* Vector-Invariant Momentum on/off */
(PID.TID 0001.0001)                   T
(PID.TID 0001.0001)     ;
(PID.TID 0001.0001) momAdvection =  /* Momentum advection on/off flag */
(PID.TID 0001.0001)                   T
(PID.TID 0001.0001)     ;
(PID.TID 0001.0001) momViscosity =  /* Momentum viscosity on/off flag */
(PID.TID 0001.0001)                   T
(PID.TID 0001.0001)     ;
(PID.TID 0001.0001) momImplVertAdv =/* Momentum implicit vert. advection on/off*/
(PID.TID 0001.0001)                   F
(PID.TID 0001.0001)     ;
(PID.TID 0001.0001) implicitViscosity = /* Implicit viscosity on/off flag */
(PID.TID 0001.0001)                   F
(PID.TID 0001.0001)     ;
(PID.TID 0001.0001) metricTerms =  /* metric-Terms on/off flag */
(PID.TID 0001.0001)                   F
(PID.TID 0001.0001)     ;
(PID.TID 0001.0001) useNHMTerms = /* Non-Hydrostatic Metric-Terms on/off */
(PID.TID 0001.0001)                   F
(PID.TID 0001.0001)     ;
(PID.TID 0001.0001) useConstantF =  /* use Constant f0 Coriolis flag */
(PID.TID 0001.0001)                   F
(PID.TID 0001.0001)     ;
(PID.TID 0001.0001) useBetaPlaneF = /* use Beta-Plane Coriolis flag */
(PID.TID 0001.0001)                   F
(PID.TID 0001.0001)     ;
(PID.TID 0001.0001) useSphereF  =   /* use Spherical Coriolis flag */
(PID.TID 0001.0001)                   T
(PID.TID 0001.0001)     ;
(PID.TID 0001.0001) use3dCoriolis = /* 3-D Coriolis on/off flag */
(PID.TID 0001.0001)                   F
(PID.TID 0001.0001)     ;
(PID.TID 0001.0001) useCoriolis =  /* Coriolis on/off flag */
(PID.TID 0001.0001)                   T
(PID.TID 0001.0001)     ;
(PID.TID 0001.0001) useCDscheme =  /* CD scheme on/off flag */
(PID.TID 0001.0001)                   F
(PID.TID 0001.0001)     ;
(PID.TID 0001.0001) useJamartWetPoints= /* Coriolis WetPoints method flag */
(PID.TID 0001.0001)                   F
(PID.TID 0001.0001)     ;
(PID.TID 0001.0001) useJamartMomAdv= /* V.I. Non-linear terms Jamart flag */
(PID.TID 0001.0001)                   F
(PID.TID 0001.0001)     ;
(PID.TID 0001.0001) SadournyCoriolis= /* Sadourny Coriolis discr. flag */
(PID.TID 0001.0001)                   F
(PID.TID 0001.0001)     ;
(PID.TID 0001.0001) upwindVorticity= /* Upwind bias vorticity flag */
(PID.TID 0001.0001)                   F
(PID.TID 0001.0001)     ;
(PID.TID 0001.0001) useAbsVorticity= /* Work with f+zeta in Coriolis */
(PID.TID 0001.0001)                   F
(PID.TID 0001.0001)     ;
(PID.TID 0001.0001) highOrderVorticity= /* High order interp. of vort. flag */
(PID.TID 0001.0001)                   F
(PID.TID 0001.0001)     ;
(PID.TID 0001.0001) upwindShear= /* Upwind vertical Shear advection flag */
(PID.TID 0001.0001)                   F
(PID.TID 0001.0001)     ;
(PID.TID 0001.0001) selectKEscheme= /* Kinetic Energy scheme selector */
(PID.TID 0001.0001)                       0
(PID.TID 0001.0001)     ;
(PID.TID 0001.0001) momForcing =  /* Momentum forcing on/off flag */
(PID.TID 0001.0001)                   T
(PID.TID 0001.0001)     ;
(PID.TID 0001.0001) momPressureForcing =  /* Momentum pressure term on/off flag */
(PID.TID 0001.0001)                   T
(PID.TID 0001.0001)     ;
(PID.TID 0001.0001) implicitIntGravWave= /* Implicit Internal Gravity Wave flag */
(PID.TID 0001.0001)                   F
(PID.TID 0001.0001)     ;
(PID.TID 0001.0001) staggerTimeStep =   /* Stagger time stepping on/off flag */
(PID.TID 0001.0001)                   T
(PID.TID 0001.0001)     ;
(PID.TID 0001.0001) multiDimAdvection =   /* enable/disable Multi-Dim Advection */
(PID.TID 0001.0001)                   T
(PID.TID 0001.0001)     ;
(PID.TID 0001.0001) useMultiDimAdvec =   /* Multi-Dim Advection is/is-not used */
(PID.TID 0001.0001)                   F
(PID.TID 0001.0001)     ;
(PID.TID 0001.0001) implicitDiffusion =/* Implicit Diffusion on/off flag */
(PID.TID 0001.0001)                   T
(PID.TID 0001.0001)     ;
(PID.TID 0001.0001) tempStepping =  /* Temperature equation on/off flag */
(PID.TID 0001.0001)                   T
(PID.TID 0001.0001)     ;
(PID.TID 0001.0001) tempAdvection=  /* Temperature advection on/off flag */
(PID.TID 0001.0001)                   T
(PID.TID 0001.0001)     ;
(PID.TID 0001.0001) tempImplVertAdv =/* Temp. implicit vert. advection on/off */
(PID.TID 0001.0001)                   F
(PID.TID 0001.0001)     ;
(PID.TID 0001.0001) tempForcing  =  /* Temperature forcing on/off flag */
(PID.TID 0001.0001)                   T
(PID.TID 0001.0001)     ;
(PID.TID 0001.0001) saltStepping =  /* Salinity equation on/off flag */
(PID.TID 0001.0001)                   T
(PID.TID 0001.0001)     ;
(PID.TID 0001.0001) saltAdvection=  /* Salinity advection on/off flag */
(PID.TID 0001.0001)                   T
(PID.TID 0001.0001)     ;
(PID.TID 0001.0001) saltImplVertAdv =/* Sali. implicit vert. advection on/off */
(PID.TID 0001.0001)                   F
(PID.TID 0001.0001)     ;
(PID.TID 0001.0001) saltForcing  =  /* Salinity forcing on/off flag */
(PID.TID 0001.0001)                   T
(PID.TID 0001.0001)     ;
(PID.TID 0001.0001)  readBinaryPrec = /* Precision used for reading binary files */
(PID.TID 0001.0001)                      64
(PID.TID 0001.0001)     ;
(PID.TID 0001.0001) writeBinaryPrec = /* Precision used for writing binary files */
(PID.TID 0001.0001)                      32
(PID.TID 0001.0001)     ;
(PID.TID 0001.0001)  globalFiles = /* write "global" (=not per tile) files */
(PID.TID 0001.0001)                   F
(PID.TID 0001.0001)     ;
(PID.TID 0001.0001)  useSingleCpuIO = /* only master MPI process does I/O */
(PID.TID 0001.0001)                   F
(PID.TID 0001.0001)     ;
(PID.TID 0001.0001)  debugMode  =  /* Debug Mode on/off flag */
(PID.TID 0001.0001)                   F
(PID.TID 0001.0001)     ;
(PID.TID 0001.0001)    debLevA  =  /* 1rst level of debugging */
(PID.TID 0001.0001)                       1
(PID.TID 0001.0001)     ;
(PID.TID 0001.0001)    debLevB  =  /* 2nd  level of debugging */
(PID.TID 0001.0001)                       2
(PID.TID 0001.0001)     ;
(PID.TID 0001.0001)  debugLevel =  /* select debugging level */
(PID.TID 0001.0001)                       1
(PID.TID 0001.0001)     ;
(PID.TID 0001.0001) //
(PID.TID 0001.0001) // Elliptic solver(s) paramters ( PARM02 in namelist )
(PID.TID 0001.0001) //
(PID.TID 0001.0001) cg2dMaxIters =   /* Upper limit on 2d con. grad iterations  */
(PID.TID 0001.0001)                     200
(PID.TID 0001.0001)     ;
(PID.TID 0001.0001) cg2dChkResFreq =   /* 2d con. grad convergence test frequency */
(PID.TID 0001.0001)                       1
(PID.TID 0001.0001)     ;
(PID.TID 0001.0001) cg2dTargetResidual =   /* 2d con. grad target residual  */
(PID.TID 0001.0001)                 1.000000000000000E-07
(PID.TID 0001.0001)     ;
(PID.TID 0001.0001) cg2dTargetResWunit =   /* CG2d target residual [W units] */
(PID.TID 0001.0001)                 1.000000000000000E-14
(PID.TID 0001.0001)     ;
(PID.TID 0001.0001) cg2dPreCondFreq =   /* Freq. for updating cg2d preconditioner */
(PID.TID 0001.0001)                       1
(PID.TID 0001.0001)     ;
(PID.TID 0001.0001) //
(PID.TID 0001.0001) // Time stepping paramters ( PARM03 in namelist )
(PID.TID 0001.0001) //
(PID.TID 0001.0001) nIter0 =   /* Run starting timestep number  */
(PID.TID 0001.0001)                   72000
(PID.TID 0001.0001)     ;
(PID.TID 0001.0001) nTimeSteps =   /* Number of timesteps */
(PID.TID 0001.0001)                      20
(PID.TID 0001.0001)     ;
(PID.TID 0001.0001) deltaTmom =   /* Momentum equation timestep ( s ) */
(PID.TID 0001.0001)                 1.200000000000000E+03
(PID.TID 0001.0001)     ;
(PID.TID 0001.0001) deltaTfreesurf =   /* FreeSurface equation timestep ( s ) */
(PID.TID 0001.0001)                 8.640000000000000E+04
(PID.TID 0001.0001)     ;
(PID.TID 0001.0001) dTtracerLev =   /* Tracer equation timestep ( s ) */
(PID.TID 0001.0001)    15 @  8.640000000000000E+04              /* K =  1: 15 */
(PID.TID 0001.0001)     ;
(PID.TID 0001.0001) deltaTClock  =   /* Model clock timestep ( s ) */
(PID.TID 0001.0001)                 8.640000000000000E+04
(PID.TID 0001.0001)     ;
(PID.TID 0001.0001) cAdjFreq =   /* Convective adjustment interval ( s ) */
(PID.TID 0001.0001)                 0.000000000000000E+00
(PID.TID 0001.0001)     ;
(PID.TID 0001.0001) momForcingOutAB = /* =1: take Momentum Forcing out of Adams-Bash. stepping */
(PID.TID 0001.0001)                       0
(PID.TID 0001.0001)     ;
(PID.TID 0001.0001) tracForcingOutAB = /* =1: take T,S,pTr Forcing out of Adams-Bash. stepping */
(PID.TID 0001.0001)                       1
(PID.TID 0001.0001)     ;
(PID.TID 0001.0001) momDissip_In_AB = /* put Dissipation Tendency in Adams-Bash. stepping */
(PID.TID 0001.0001)                   T
(PID.TID 0001.0001)     ;
(PID.TID 0001.0001) doAB_onGtGs = /* apply AB on Tendencies (rather than on T,S)*/
(PID.TID 0001.0001)                   T
(PID.TID 0001.0001)     ;
(PID.TID 0001.0001) abEps =   /* Adams-Bashforth-2 stabilizing weight */
(PID.TID 0001.0001)                 1.000000000000000E-01
(PID.TID 0001.0001)     ;
(PID.TID 0001.0001) baseTime =   /* Model base time ( s ). */
(PID.TID 0001.0001)                 0.000000000000000E+00
(PID.TID 0001.0001)     ;
(PID.TID 0001.0001) startTime =   /* Run start time ( s ). */
(PID.TID 0001.0001)                 6.220800000000000E+09
(PID.TID 0001.0001)     ;
(PID.TID 0001.0001) endTime =   /* Integration ending time ( s ). */
(PID.TID 0001.0001)                 6.222528000000000E+09
(PID.TID 0001.0001)     ;
(PID.TID 0001.0001) pChkPtFreq =   /* Permanent restart/checkpoint file interval ( s ). */
(PID.TID 0001.0001)                 1.728000000000000E+06
(PID.TID 0001.0001)     ;
(PID.TID 0001.0001) chkPtFreq =   /* Rolling restart/checkpoint file interval ( s ). */
(PID.TID 0001.0001)                 0.000000000000000E+00
(PID.TID 0001.0001)     ;
(PID.TID 0001.0001) pickup_write_mdsio =   /* Model IO flag. */
(PID.TID 0001.0001)                   T
(PID.TID 0001.0001)     ;
(PID.TID 0001.0001) pickup_read_mdsio =   /* Model IO flag. */
(PID.TID 0001.0001)                   T
(PID.TID 0001.0001)     ;
(PID.TID 0001.0001) pickup_write_immed =   /* Model IO flag. */
(PID.TID 0001.0001)                   F
(PID.TID 0001.0001)     ;
(PID.TID 0001.0001) dumpFreq =   /* Model state write out interval ( s ). */
(PID.TID 0001.0001)                 6.220800000000000E+08
(PID.TID 0001.0001)     ;
(PID.TID 0001.0001) dumpInitAndLast= /* write out Initial & Last iter. model state */
(PID.TID 0001.0001)                   T
(PID.TID 0001.0001)     ;
(PID.TID 0001.0001) snapshot_mdsio =   /* Model IO flag. */
(PID.TID 0001.0001)                   T
(PID.TID 0001.0001)     ;
(PID.TID 0001.0001) monitorFreq =   /* Monitor output interval ( s ). */
(PID.TID 0001.0001)                 1.000000000000000E+00
(PID.TID 0001.0001)     ;
(PID.TID 0001.0001) monitor_stdio =   /* Model IO flag. */
(PID.TID 0001.0001)                   T
(PID.TID 0001.0001)     ;
(PID.TID 0001.0001) externForcingPeriod =   /* forcing period (s) */
(PID.TID 0001.0001)                 2.592000000000000E+06
(PID.TID 0001.0001)     ;
(PID.TID 0001.0001) externForcingCycle =   /* period of the cyle (s). */
(PID.TID 0001.0001)                 3.110400000000000E+07
(PID.TID 0001.0001)     ;
(PID.TID 0001.0001) tauThetaClimRelax =   /* relaxation time scale (s) */
(PID.TID 0001.0001)                 5.184000000000000E+06
(PID.TID 0001.0001)     ;
(PID.TID 0001.0001) tauSaltClimRelax =   /* relaxation time scale (s) */
(PID.TID 0001.0001)                 6.220800000000000E+07
(PID.TID 0001.0001)     ;
(PID.TID 0001.0001) latBandClimRelax =   /* max. Lat. where relaxation */
(PID.TID 0001.0001)                 1.800000000000000E+02
(PID.TID 0001.0001)     ;
(PID.TID 0001.0001) //
(PID.TID 0001.0001) // Gridding paramters ( PARM04 in namelist )
(PID.TID 0001.0001) //
(PID.TID 0001.0001) usingCartesianGrid = /* Cartesian coordinates flag ( True/False ) */
(PID.TID 0001.0001)                   F
(PID.TID 0001.0001)     ;
(PID.TID 0001.0001) usingCylindricalGrid = /* Cylindrical coordinates flag ( True/False ) */
(PID.TID 0001.0001)                   F
(PID.TID 0001.0001)     ;
(PID.TID 0001.0001) usingSphericalPolarGrid = /* Spherical coordinates flag ( True/False ) */
(PID.TID 0001.0001)                   F
(PID.TID 0001.0001)     ;
(PID.TID 0001.0001) usingCurvilinearGrid = /* Curvilinear coordinates flag ( True/False ) */
(PID.TID 0001.0001)                   T
(PID.TID 0001.0001)     ;
(PID.TID 0001.0001) Ro_SeaLevel = /* r(1) ( units of r ) */
(PID.TID 0001.0001)                 0.000000000000000E+00
(PID.TID 0001.0001)     ;
(PID.TID 0001.0001) rkSign =   /* index orientation relative to vertical coordinate */
(PID.TID 0001.0001)                -1.000000000000000E+00
(PID.TID 0001.0001)     ;
(PID.TID 0001.0001) gravitySign = /* gravity orientation relative to vertical coordinate */
(PID.TID 0001.0001)                -1.000000000000000E+00
(PID.TID 0001.0001)     ;
(PID.TID 0001.0001) horiVertRatio =   /* Ratio on units : Horiz - Vertical */
(PID.TID 0001.0001)                 1.000000000000000E+00
(PID.TID 0001.0001)     ;
(PID.TID 0001.0001) drC =   /* C spacing ( units of r ) */
(PID.TID 0001.0001)                 2.500000000000000E+01,      /* K =  1 */
(PID.TID 0001.0001)                 6.000000000000000E+01,      /* K =  2 */
(PID.TID 0001.0001)                 8.500000000000000E+01,      /* K =  3 */
(PID.TID 0001.0001)                 1.200000000000000E+02,      /* K =  4 */
(PID.TID 0001.0001)                 1.650000000000000E+02,      /* K =  5 */
(PID.TID 0001.0001)                 2.150000000000000E+02,      /* K =  6 */
(PID.TID 0001.0001)                 2.650000000000000E+02,      /* K =  7 */
(PID.TID 0001.0001)                 3.150000000000000E+02,      /* K =  8 */
(PID.TID 0001.0001)                 3.650000000000000E+02,      /* K =  9 */
(PID.TID 0001.0001)                 4.150000000000000E+02,      /* K = 10 */
(PID.TID 0001.0001)                 4.650000000000000E+02,      /* K = 11 */
(PID.TID 0001.0001)                 5.150000000000000E+02,      /* K = 12 */
(PID.TID 0001.0001)                 5.650000000000000E+02,      /* K = 13 */
(PID.TID 0001.0001)                 6.150000000000000E+02,      /* K = 14 */
(PID.TID 0001.0001)                 6.650000000000000E+02       /* K = 15 */
(PID.TID 0001.0001)     ;
(PID.TID 0001.0001) drF =   /* W spacing ( units of r ) */
(PID.TID 0001.0001)                 5.000000000000000E+01,      /* K =  1 */
(PID.TID 0001.0001)                 7.000000000000000E+01,      /* K =  2 */
(PID.TID 0001.0001)                 1.000000000000000E+02,      /* K =  3 */
(PID.TID 0001.0001)                 1.400000000000000E+02,      /* K =  4 */
(PID.TID 0001.0001)                 1.900000000000000E+02,      /* K =  5 */
(PID.TID 0001.0001)                 2.400000000000000E+02,      /* K =  6 */
(PID.TID 0001.0001)                 2.900000000000000E+02,      /* K =  7 */
(PID.TID 0001.0001)                 3.400000000000000E+02,      /* K =  8 */
(PID.TID 0001.0001)                 3.900000000000000E+02,      /* K =  9 */
(PID.TID 0001.0001)                 4.400000000000000E+02,      /* K = 10 */
(PID.TID 0001.0001)                 4.900000000000000E+02,      /* K = 11 */
(PID.TID 0001.0001)                 5.400000000000000E+02,      /* K = 12 */
(PID.TID 0001.0001)                 5.900000000000000E+02,      /* K = 13 */
(PID.TID 0001.0001)                 6.400000000000000E+02,      /* K = 14 */
(PID.TID 0001.0001)                 6.900000000000000E+02       /* K = 15 */
(PID.TID 0001.0001)     ;
(PID.TID 0001.0001) delX =   /* U spacing ( m - cartesian, degrees - spherical ) */
(PID.TID 0001.0001)   192 @  1.234567000000000E+05              /* I =  1:192 */
(PID.TID 0001.0001)     ;
(PID.TID 0001.0001) delY =   /* V spacing ( m - cartesian, degrees - spherical ) */
(PID.TID 0001.0001)    32 @  1.234567000000000E+05              /* J =  1: 32 */
(PID.TID 0001.0001)     ;
(PID.TID 0001.0001) phiMin =    /* South edge (ignored - cartesian, degrees - spherical ) */
(PID.TID 0001.0001)                 0.000000000000000E+00
(PID.TID 0001.0001)     ;
(PID.TID 0001.0001) thetaMin =    /* West edge ( ignored - cartesian, degrees - spherical ) */
(PID.TID 0001.0001)                 0.000000000000000E+00
(PID.TID 0001.0001)     ;
(PID.TID 0001.0001) rSphere =  /* Radius ( ignored - cartesian, m - spherical ) */
(PID.TID 0001.0001)                 6.370000000000000E+06
(PID.TID 0001.0001)     ;
(PID.TID 0001.0001) deepAtmosphere = /* Deep/Shallow Atmosphere flag (True/False) */
(PID.TID 0001.0001)                   F
(PID.TID 0001.0001)     ;
(PID.TID 0001.0001) xcoord =   /* P-point X coord ( m - cartesian, degrees - spherical ) */
(PID.TID 0001.0001)                 4.560478005239464E+01,      /* I =  1 */
(PID.TID 0001.0001)                 4.704358727724117E+01,      /* I =  2 */
(PID.TID 0001.0001)                 4.877944446611043E+01,      /* I =  3 */
(PID.TID 0001.0001)                 5.076553711512697E+01,      /* I =  4 */
(PID.TID 0001.0001)                 5.297414841317801E+01,      /* I =  5 */
(PID.TID 0001.0001)                 5.538820632905850E+01,      /* I =  6 */
(PID.TID 0001.0001)                 5.799565430958209E+01,      /* I =  7 */
(PID.TID 0001.0001)                 6.078644034367325E+01,      /* I =  8 */
(PID.TID 0001.0001)                 6.375067776971711E+01,      /* I =  9 */
(PID.TID 0001.0001)                 6.687738749573657E+01,      /* I = 10 */
(PID.TID 0001.0001)                 7.015359282872943E+01,      /* I = 11 */
(PID.TID 0001.0001)                 7.356369199444866E+01,      /* I = 12 */
(PID.TID 0001.0001)                 7.708910193697932E+01,      /* I = 13 */
(PID.TID 0001.0001)                 8.070819219728060E+01,      /* I = 14 */
(PID.TID 0001.0001)                 8.439652466417766E+01,      /* I = 15 */
(PID.TID 0001.0001)                 8.812739148696656E+01,      /* I = 16 */
(PID.TID 0001.0001)                 9.187260851303344E+01,      /* I = 17 */
(PID.TID 0001.0001)                 9.560347533582234E+01,      /* I = 18 */
(PID.TID 0001.0001)                 9.929180780271940E+01,      /* I = 19 */
(PID.TID 0001.0001)                 1.029108980630207E+02,      /* I = 20 */
(PID.TID 0001.0001)                 1.064363080055513E+02,      /* I = 21 */
(PID.TID 0001.0001)                 1.098464071712706E+02,      /* I = 22 */
(PID.TID 0001.0001)                 1.131226125042634E+02,      /* I = 23 */
(PID.TID 0001.0001)                 1.162493222302829E+02,      /* I = 24 */
(PID.TID 0001.0001)                 1.192135596563268E+02,      /* I = 25 */
(PID.TID 0001.0001)                 1.220043456904179E+02,      /* I = 26 */
(PID.TID 0001.0001)                 1.246117936709415E+02,      /* I = 27 */
(PID.TID 0001.0001)                 1.270258515868220E+02,      /* I = 28 */
(PID.TID 0001.0001)                 1.292344628848730E+02,      /* I = 29 */
(PID.TID 0001.0001)                 1.312205555338896E+02,      /* I = 30 */
(PID.TID 0001.0001)                 1.329564127227588E+02,      /* I = 31 */
(PID.TID 0001.0001)                 1.343952199476053E+02       /* I = 32 */
(PID.TID 0001.0001)     ;
(PID.TID 0001.0001) ycoord =   /* P-point Y coord ( m - cartesian, degrees - spherical ) */
(PID.TID 0001.0001)                -3.497677942598243E+01,      /* J =  1 */
(PID.TID 0001.0001)                -3.374005967394886E+01,      /* J =  2 */
(PID.TID 0001.0001)                -3.220655175667454E+01,      /* J =  3 */
(PID.TID 0001.0001)                -3.045756348838641E+01,      /* J =  4 */
(PID.TID 0001.0001)                -2.853728129852918E+01,      /* J =  5 */
(PID.TID 0001.0001)                -2.647426640173173E+01,      /* J =  6 */
(PID.TID 0001.0001)                -2.428936657094636E+01,      /* J =  7 */
(PID.TID 0001.0001)                -2.199915808312262E+01,      /* J =  8 */
(PID.TID 0001.0001)                -1.961768597440146E+01,      /* J =  9 */
(PID.TID 0001.0001)                -1.715743888281371E+01,      /* J = 10 */
(PID.TID 0001.0001)                -1.462993396899330E+01,      /* J = 11 */
(PID.TID 0001.0001)                -1.204608340464756E+01,      /* J = 12 */
(PID.TID 0001.0001)                -9.416429130284818E+00,      /* J = 13 */
(PID.TID 0001.0001)                -6.751293662992216E+00,      /* J = 14 */
(PID.TID 0001.0001)                -4.060875511835959E+00,      /* J = 15 */
(PID.TID 0001.0001)                -1.355307764409121E+00,      /* J = 16 */
(PID.TID 0001.0001)                 1.355307764409121E+00,      /* J = 17 */
(PID.TID 0001.0001)                 4.060875511835959E+00,      /* J = 18 */
(PID.TID 0001.0001)                 6.751293662992216E+00,      /* J = 19 */
(PID.TID 0001.0001)                 9.416429130284818E+00,      /* J = 20 */
(PID.TID 0001.0001)                 1.204608340464756E+01,      /* J = 21 */
(PID.TID 0001.0001)                 1.462993396899330E+01,      /* J = 22 */
(PID.TID 0001.0001)                 1.715743888281371E+01,      /* J = 23 */
(PID.TID 0001.0001)                 1.961768597440146E+01,      /* J = 24 */
(PID.TID 0001.0001)                 2.199915808312262E+01,      /* J = 25 */
(PID.TID 0001.0001)                 2.428936657094636E+01,      /* J = 26 */
(PID.TID 0001.0001)                 2.647426640173173E+01,      /* J = 27 */
(PID.TID 0001.0001)                 2.853728129852918E+01,      /* J = 28 */
(PID.TID 0001.0001)                 3.045756348838641E+01,      /* J = 29 */
(PID.TID 0001.0001)                 3.220655175667454E+01,      /* J = 30 */
(PID.TID 0001.0001)                 3.374005967394886E+01,      /* J = 31 */
(PID.TID 0001.0001)                 3.497677942598243E+01       /* J = 32 */
(PID.TID 0001.0001)     ;
(PID.TID 0001.0001) rcoord =   /* P-point R coordinate (  units of r ) */
(PID.TID 0001.0001)                -2.500000000000000E+01,      /* K =  1 */
(PID.TID 0001.0001)                -8.500000000000000E+01,      /* K =  2 */
(PID.TID 0001.0001)                -1.700000000000000E+02,      /* K =  3 */
(PID.TID 0001.0001)                -2.900000000000000E+02,      /* K =  4 */
(PID.TID 0001.0001)                -4.550000000000000E+02,      /* K =  5 */
(PID.TID 0001.0001)                -6.700000000000000E+02,      /* K =  6 */
(PID.TID 0001.0001)                -9.350000000000000E+02,      /* K =  7 */
(PID.TID 0001.0001)                -1.250000000000000E+03,      /* K =  8 */
(PID.TID 0001.0001)                -1.615000000000000E+03,      /* K =  9 */
(PID.TID 0001.0001)                -2.030000000000000E+03,      /* K = 10 */
(PID.TID 0001.0001)                -2.495000000000000E+03,      /* K = 11 */
(PID.TID 0001.0001)                -3.010000000000000E+03,      /* K = 12 */
(PID.TID 0001.0001)                -3.575000000000000E+03,      /* K = 13 */
(PID.TID 0001.0001)                -4.190000000000000E+03,      /* K = 14 */
(PID.TID 0001.0001)                -4.855000000000000E+03       /* K = 15 */
(PID.TID 0001.0001)     ;
(PID.TID 0001.0001) rF =   /* W-Interf. R coordinate (  units of r ) */
(PID.TID 0001.0001)                 0.000000000000000E+00,      /* K =  1 */
(PID.TID 0001.0001)                -5.000000000000000E+01,      /* K =  2 */
(PID.TID 0001.0001)                -1.200000000000000E+02,      /* K =  3 */
(PID.TID 0001.0001)                -2.200000000000000E+02,      /* K =  4 */
(PID.TID 0001.0001)                -3.600000000000000E+02,      /* K =  5 */
(PID.TID 0001.0001)                -5.500000000000000E+02,      /* K =  6 */
(PID.TID 0001.0001)                -7.900000000000000E+02,      /* K =  7 */
(PID.TID 0001.0001)                -1.080000000000000E+03,      /* K =  8 */
(PID.TID 0001.0001)                -1.420000000000000E+03,      /* K =  9 */
(PID.TID 0001.0001)                -1.810000000000000E+03,      /* K = 10 */
(PID.TID 0001.0001)                -2.250000000000000E+03,      /* K = 11 */
(PID.TID 0001.0001)                -2.740000000000000E+03,      /* K = 12 */
(PID.TID 0001.0001)                -3.280000000000000E+03,      /* K = 13 */
(PID.TID 0001.0001)                -3.870000000000000E+03,      /* K = 14 */
(PID.TID 0001.0001)                -4.510000000000000E+03,      /* K = 15 */
(PID.TID 0001.0001)                -5.200000000000000E+03       /* K = 16 */
(PID.TID 0001.0001)     ;
(PID.TID 0001.0001) deepFacC = /* deep-model grid factor @ cell-Center (-) */
(PID.TID 0001.0001)    15 @  1.000000000000000E+00              /* K =  1: 15 */
(PID.TID 0001.0001)     ;
(PID.TID 0001.0001) deepFacF = /* deep-model grid factor @ W-Interface (-) */
(PID.TID 0001.0001)    16 @  1.000000000000000E+00              /* K =  1: 16 */
(PID.TID 0001.0001)     ;
(PID.TID 0001.0001) dBdrRef = /* Vertical gradient of reference boyancy [(m/s/r)^2)] */
(PID.TID 0001.0001)    15 @  0.000000000000000E+00              /* K =  1: 15 */
(PID.TID 0001.0001)     ;
(PID.TID 0001.0001) dxF =  /* dxF(:,1,:,1) ( units: m ) */
(PID.TID 0001.0001)                 1.202082051331828E+05,      /* I =  1 */
(PID.TID 0001.0001)                 1.563594089971120E+05,      /* I =  2 */
(PID.TID 0001.0001)                 1.835530058121492E+05,      /* I =  3 */
(PID.TID 0001.0001)                 2.045883481718707E+05,      /* I =  4 */
(PID.TID 0001.0001)                 2.218350349844185E+05,      /* I =  5 */
(PID.TID 0001.0001)                 2.364352994647058E+05,      /* I =  6 */
(PID.TID 0001.0001)                 2.490022710862746E+05,      /* I =  7 */
(PID.TID 0001.0001)                 2.598919724358304E+05,      /* I =  8 */
(PID.TID 0001.0001)                 2.693210245495156E+05,      /* I =  9 */
(PID.TID 0001.0001)                 2.774243179696503E+05,      /* I = 10 */
(PID.TID 0001.0001)                 2.842862532064524E+05,      /* I = 11 */
(PID.TID 0001.0001)                 2.899590699694043E+05,      /* I = 12 */
(PID.TID 0001.0001)                 2.944742915095688E+05,      /* I = 13 */
(PID.TID 0001.0001)                 2.978501920522794E+05,      /* I = 14 */
(PID.TID 0001.0001)                 3.000967749619962E+05,      /* I = 15 */
(PID.TID 0001.0001)     2 @  3.012190981969055E+05,             /* I = 16: 17 */
(PID.TID 0001.0001)                 3.000967749619962E+05,      /* I = 18 */
(PID.TID 0001.0001)                 2.978501920522794E+05,      /* I = 19 */
(PID.TID 0001.0001)                 2.944742915095688E+05,      /* I = 20 */
(PID.TID 0001.0001)                 2.899590699694043E+05,      /* I = 21 */
(PID.TID 0001.0001)                 2.842862532064524E+05,      /* I = 22 */
(PID.TID 0001.0001)                 2.774243179696503E+05,      /* I = 23 */
(PID.TID 0001.0001)                 2.693210245495156E+05,      /* I = 24 */
(PID.TID 0001.0001)                 2.598919724358304E+05,      /* I = 25 */
(PID.TID 0001.0001)                 2.490022710862746E+05,      /* I = 26 */
(PID.TID 0001.0001)                 2.364352994647058E+05,      /* I = 27 */
(PID.TID 0001.0001)                 2.218350349844185E+05,      /* I = 28 */
(PID.TID 0001.0001)                 2.045883481718707E+05,      /* I = 29 */
(PID.TID 0001.0001)                 1.835530058121492E+05,      /* I = 30 */
(PID.TID 0001.0001)                 1.563594089971120E+05,      /* I = 31 */
(PID.TID 0001.0001)                 1.202082051331828E+05       /* I = 32 */
(PID.TID 0001.0001)     ;
(PID.TID 0001.0001) dxF =  /* dxF(1,:,1,:) ( units: m ) */
(PID.TID 0001.0001)                 1.202082051331828E+05,      /* J =  1 */
(PID.TID 0001.0001)                 1.572908084538706E+05,      /* J =  2 */
(PID.TID 0001.0001)                 1.840412227747703E+05,      /* J =  3 */
(PID.TID 0001.0001)                 2.048868197919576E+05,      /* J =  4 */
(PID.TID 0001.0001)                 2.220405216043041E+05,      /* J =  5 */
(PID.TID 0001.0001)                 2.365892017348392E+05,      /* J =  6 */
(PID.TID 0001.0001)                 2.491250781852558E+05,      /* J =  7 */
(PID.TID 0001.0001)                 2.599949918261881E+05,      /* J =  8 */
(PID.TID 0001.0001)                 2.694110134598581E+05,      /* J =  9 */
(PID.TID 0001.0001)                 2.775055554645015E+05,      /* J = 10 */
(PID.TID 0001.0001)                 2.843615645344775E+05,      /* J = 11 */
(PID.TID 0001.0001)                 2.900303768613599E+05,      /* J = 12 */
(PID.TID 0001.0001)                 2.945429307892709E+05,      /* J = 13 */
(PID.TID 0001.0001)                 2.979171143158405E+05,      /* J = 14 */
(PID.TID 0001.0001)                 3.001626787528886E+05,      /* J = 15 */
(PID.TID 0001.0001)     2 @  3.012844832048790E+05,             /* J = 16: 17 */
(PID.TID 0001.0001)                 3.001626787528886E+05,      /* J = 18 */
(PID.TID 0001.0001)                 2.979171143158405E+05,      /* J = 19 */
(PID.TID 0001.0001)                 2.945429307892709E+05,      /* J = 20 */
(PID.TID 0001.0001)                 2.900303768613599E+05,      /* J = 21 */
(PID.TID 0001.0001)                 2.843615645344775E+05,      /* J = 22 */
(PID.TID 0001.0001)                 2.775055554645015E+05,      /* J = 23 */
(PID.TID 0001.0001)                 2.694110134598581E+05,      /* J = 24 */
(PID.TID 0001.0001)                 2.599949918261881E+05,      /* J = 25 */
(PID.TID 0001.0001)                 2.491250781852558E+05,      /* J = 26 */
(PID.TID 0001.0001)                 2.365892017348392E+05,      /* J = 27 */
(PID.TID 0001.0001)                 2.220405216043041E+05,      /* J = 28 */
(PID.TID 0001.0001)                 2.048868197919576E+05,      /* J = 29 */
(PID.TID 0001.0001)                 1.840412227747703E+05,      /* J = 30 */
(PID.TID 0001.0001)                 1.572908084538706E+05,      /* J = 31 */
(PID.TID 0001.0001)                 1.202082051331828E+05       /* J = 32 */
(PID.TID 0001.0001)     ;
(PID.TID 0001.0001) dyF =  /* dyF(:,1,:,1) ( units: m ) */
(PID.TID 0001.0001)                 1.202082051331828E+05,      /* I =  1 */
(PID.TID 0001.0001)                 1.572908084538706E+05,      /* I =  2 */
(PID.TID 0001.0001)                 1.840412227747703E+05,      /* I =  3 */
(PID.TID 0001.0001)                 2.048868197919576E+05,      /* I =  4 */
(PID.TID 0001.0001)                 2.220405216043041E+05,      /* I =  5 */
(PID.TID 0001.0001)                 2.365892017348392E+05,      /* I =  6 */
(PID.TID 0001.0001)                 2.491250781852558E+05,      /* I =  7 */
(PID.TID 0001.0001)                 2.599949918261881E+05,      /* I =  8 */
(PID.TID 0001.0001)                 2.694110134598581E+05,      /* I =  9 */
(PID.TID 0001.0001)                 2.775055554645015E+05,      /* I = 10 */
(PID.TID 0001.0001)                 2.843615645344775E+05,      /* I = 11 */
(PID.TID 0001.0001)                 2.900303768613599E+05,      /* I = 12 */
(PID.TID 0001.0001)                 2.945429307892709E+05,      /* I = 13 */
(PID.TID 0001.0001)                 2.979171143158405E+05,      /* I = 14 */
(PID.TID 0001.0001)                 3.001626787528886E+05,      /* I = 15 */
(PID.TID 0001.0001)     2 @  3.012844832048790E+05,             /* I = 16: 17 */
(PID.TID 0001.0001)                 3.001626787528886E+05,      /* I = 18 */
(PID.TID 0001.0001)                 2.979171143158405E+05,      /* I = 19 */
(PID.TID 0001.0001)                 2.945429307892709E+05,      /* I = 20 */
(PID.TID 0001.0001)                 2.900303768613599E+05,      /* I = 21 */
(PID.TID 0001.0001)                 2.843615645344775E+05,      /* I = 22 */
(PID.TID 0001.0001)                 2.775055554645015E+05,      /* I = 23 */
(PID.TID 0001.0001)                 2.694110134598581E+05,      /* I = 24 */
(PID.TID 0001.0001)                 2.599949918261881E+05,      /* I = 25 */
(PID.TID 0001.0001)                 2.491250781852558E+05,      /* I = 26 */
(PID.TID 0001.0001)                 2.365892017348392E+05,      /* I = 27 */
(PID.TID 0001.0001)                 2.220405216043041E+05,      /* I = 28 */
(PID.TID 0001.0001)                 2.048868197919576E+05,      /* I = 29 */
(PID.TID 0001.0001)                 1.840412227747703E+05,      /* I = 30 */
(PID.TID 0001.0001)                 1.572908084538706E+05,      /* I = 31 */
(PID.TID 0001.0001)                 1.202082051331828E+05       /* I = 32 */
(PID.TID 0001.0001)     ;
(PID.TID 0001.0001) dyF =  /* dyF(1,:,1,:) ( units: m ) */
(PID.TID 0001.0001)                 1.202082051331828E+05,      /* J =  1 */
(PID.TID 0001.0001)                 1.563594089971120E+05,      /* J =  2 */
(PID.TID 0001.0001)                 1.835530058121492E+05,      /* J =  3 */
(PID.TID 0001.0001)                 2.045883481718707E+05,      /* J =  4 */
(PID.TID 0001.0001)                 2.218350349844185E+05,      /* J =  5 */
(PID.TID 0001.0001)                 2.364352994647058E+05,      /* J =  6 */
(PID.TID 0001.0001)                 2.490022710862746E+05,      /* J =  7 */
(PID.TID 0001.0001)                 2.598919724358304E+05,      /* J =  8 */
(PID.TID 0001.0001)                 2.693210245495156E+05,      /* J =  9 */
(PID.TID 0001.0001)                 2.774243179696503E+05,      /* J = 10 */
(PID.TID 0001.0001)                 2.842862532064524E+05,      /* J = 11 */
(PID.TID 0001.0001)                 2.899590699694043E+05,      /* J = 12 */
(PID.TID 0001.0001)                 2.944742915095688E+05,      /* J = 13 */
(PID.TID 0001.0001)                 2.978501920522794E+05,      /* J = 14 */
(PID.TID 0001.0001)                 3.000967749619962E+05,      /* J = 15 */
(PID.TID 0001.0001)     2 @  3.012190981969055E+05,             /* J = 16: 17 */
(PID.TID 0001.0001)                 3.000967749619962E+05,      /* J = 18 */
(PID.TID 0001.0001)                 2.978501920522794E+05,      /* J = 19 */
(PID.TID 0001.0001)                 2.944742915095688E+05,      /* J = 20 */
(PID.TID 0001.0001)                 2.899590699694043E+05,      /* J = 21 */
(PID.TID 0001.0001)                 2.842862532064524E+05,      /* J = 22 */
(PID.TID 0001.0001)                 2.774243179696503E+05,      /* J = 23 */
(PID.TID 0001.0001)                 2.693210245495156E+05,      /* J = 24 */
(PID.TID 0001.0001)                 2.598919724358304E+05,      /* J = 25 */
(PID.TID 0001.0001)                 2.490022710862746E+05,      /* J = 26 */
(PID.TID 0001.0001)                 2.364352994647058E+05,      /* J = 27 */
(PID.TID 0001.0001)                 2.218350349844185E+05,      /* J = 28 */
(PID.TID 0001.0001)                 2.045883481718707E+05,      /* J = 29 */
(PID.TID 0001.0001)                 1.835530058121492E+05,      /* J = 30 */
(PID.TID 0001.0001)                 1.563594089971120E+05,      /* J = 31 */
(PID.TID 0001.0001)                 1.202082051331828E+05       /* J = 32 */
(PID.TID 0001.0001)     ;
(PID.TID 0001.0001) dxG =  /* dxG(:,1,:,1) ( units: m ) */
(PID.TID 0001.0001)                 1.009837800879055E+05,      /* I =  1 */
(PID.TID 0001.0001)                 1.534505834330338E+05,      /* I =  2 */
(PID.TID 0001.0001)                 1.823321598773926E+05,      /* I =  3 */
(PID.TID 0001.0001)                 2.038999045536999E+05,      /* I =  4 */
(PID.TID 0001.0001)                 2.213884732245467E+05,      /* I =  5 */
(PID.TID 0001.0001)                 2.361211699596122E+05,      /* I =  6 */
[...]
(PID.TID 0001.0001) %MON dynstat_wvel_min             =  -1.9450200021013E-04
(PID.TID 0001.0001) %MON dynstat_wvel_mean            =   1.1359924720188E-10
(PID.TID 0001.0001) %MON dynstat_wvel_sd              =   3.5096120866742E-06
(PID.TID 0001.0001) %MON dynstat_wvel_del2            =   8.5012566416370E-07
(PID.TID 0001.0001) %MON dynstat_theta_max            =   3.1459601114286E+01
(PID.TID 0001.0001) %MON dynstat_theta_min            =  -4.0424057749145E+00
(PID.TID 0001.0001) %MON dynstat_theta_mean           =   3.9130498909312E+00
(PID.TID 0001.0001) %MON dynstat_theta_sd             =   4.5902618297641E+00
(PID.TID 0001.0001) %MON dynstat_theta_del2           =   8.9702586101966E-02
(PID.TID 0001.0001) %MON dynstat_salt_max             =   4.1437742105026E+01
(PID.TID 0001.0001) %MON dynstat_salt_min             =   1.8420351653106E+01
(PID.TID 0001.0001) %MON dynstat_salt_mean            =   3.4772156450270E+01
(PID.TID 0001.0001) %MON dynstat_salt_sd              =   5.3109951822907E-01
(PID.TID 0001.0001) %MON dynstat_salt_del2            =   1.8966111330063E-02
(PID.TID 0001.0001) %MON dynstat_sst_max              =   3.1459601114286E+01
(PID.TID 0001.0001) %MON dynstat_sst_min              =  -1.9874218408686E+00
(PID.TID 0001.0001) %MON dynstat_sst_mean             =   1.8367930720065E+01
(PID.TID 0001.0001) %MON dynstat_sst_sd               =   1.0132225288074E+01
(PID.TID 0001.0001) %MON dynstat_sst_del2             =   2.0815524989709E-01
(PID.TID 0001.0001) %MON dynstat_sss_max              =   4.1437742105026E+01
(PID.TID 0001.0001) %MON dynstat_sss_min              =   1.8420351653106E+01
(PID.TID 0001.0001) %MON dynstat_sss_mean             =   3.4620738718389E+01
(PID.TID 0001.0001) %MON dynstat_sss_sd               =   1.4526808593362E+00
(PID.TID 0001.0001) %MON dynstat_sss_del2             =   8.0364253773481E-02
(PID.TID 0001.0001) %MON extforcing_qnet_max          =   2.3874462609976E+02
(PID.TID 0001.0001) %MON extforcing_qnet_min          =  -1.7493292917778E+02
(PID.TID 0001.0001) %MON extforcing_qnet_mean         =  -6.5727542815606E-01
(PID.TID 0001.0001) %MON extforcing_qnet_sd           =   5.4578694097795E+01
(PID.TID 0001.0001) %MON extforcing_qnet_del2         =   4.5310026249788E+00
(PID.TID 0001.0001) %MON extforcing_qsw_max           =   0.0000000000000E+00
(PID.TID 0001.0001) %MON extforcing_qsw_min           =   0.0000000000000E+00
(PID.TID 0001.0001) %MON extforcing_qsw_mean          =   0.0000000000000E+00
(PID.TID 0001.0001) %MON extforcing_qsw_sd            =   0.0000000000000E+00
(PID.TID 0001.0001) %MON extforcing_qsw_del2          =   0.0000000000000E+00
(PID.TID 0001.0001) %MON extforcing_empmr_max         =   7.6494447208479E-08
(PID.TID 0001.0001) %MON extforcing_empmr_min         =  -1.5362614137596E-07
(PID.TID 0001.0001) %MON extforcing_empmr_mean        =  -2.0474999028391E-24
(PID.TID 0001.0001) %MON extforcing_empmr_sd          =   2.4051723601802E-08
(PID.TID 0001.0001) %MON extforcing_empmr_del2        =   1.2835223797615E-09
(PID.TID 0001.0001) %MON extforcing_fu_max            =   2.6895097536896E-01
(PID.TID 0001.0001) %MON extforcing_fu_min            =  -3.2978148278715E-01
(PID.TID 0001.0001) %MON extforcing_fu_mean           =  -8.6067551555958E-03
(PID.TID 0001.0001) %MON extforcing_fu_sd             =   7.2483394498808E-02
(PID.TID 0001.0001) %MON extforcing_fu_del2           =   2.7771943241961E-03
(PID.TID 0001.0001) %MON extforcing_fv_max            =   2.0279244542958E-01
(PID.TID 0001.0001) %MON extforcing_fv_min            =  -3.2457909738316E-01
(PID.TID 0001.0001) %MON extforcing_fv_mean           =  -1.2879080703803E-02
(PID.TID 0001.0001) %MON extforcing_fv_sd             =   7.4101480620202E-02
(PID.TID 0001.0001) %MON extforcing_fv_del2           =   2.9357218230127E-03
(PID.TID 0001.0001) %MON advcfl_uvel_max              =   7.6215909608853E-02
(PID.TID 0001.0001) %MON advcfl_vvel_max              =   7.4595151488779E-02
(PID.TID 0001.0001) %MON advcfl_wvel_max              =   6.3414991766624E-02
(PID.TID 0001.0001) %MON advcfl_W_hf_max              =   7.8193425684658E-02
(PID.TID 0001.0001) %MON pe_b_mean                    =   4.8048423968057E-04
(PID.TID 0001.0001) %MON ke_max                       =   3.3397528428013E-02
(PID.TID 0001.0001) %MON ke_mean                      =   1.3867615441686E-04
(PID.TID 0001.0001) %MON ke_vol                       =   1.3398024453628E+18
(PID.TID 0001.0001) %MON vort_r_min                   =  -1.3144747575477E-06
(PID.TID 0001.0001) %MON vort_r_max                   =   1.3674893189592E-06
(PID.TID 0001.0001) %MON vort_a_mean                  =  -2.0493733748264E-05
(PID.TID 0001.0001) %MON vort_a_sd                    =   7.5053957249885E-05
(PID.TID 0001.0001) %MON vort_p_mean                  =  -2.4715771035142E-05
(PID.TID 0001.0001) %MON vort_p_sd                    =   1.2777066920388E-04
(PID.TID 0001.0001) %MON surfExpan_theta_mean         =   6.1088907069491E-08
(PID.TID 0001.0001) %MON surfExpan_salt_mean          =   1.6549473286343E-08
(PID.TID 0001.0001) // =======================================================
(PID.TID 0001.0001) // End MONITOR dynamic field statistics
(PID.TID 0001.0001) // =======================================================
 DRIVER_GET_EXPORT_STATE_3D:MASK. This code is stubbed!
 DRIVER_SET_IMPORT_STATE_3D:SWHEAT. This code is stubbed!
 cg2d: Sum(rhs),rhsMax =  -9.89075488178059E-12  1.34990858564396E+00
(PID.TID 0001.0001)                    cg2d_init_res =    1.13890719069217E-01
(PID.TID 0001.0001)                       cg2d_iters =    61
(PID.TID 0001.0001)                         cg2d_res =    5.18292373286077E-07
(PID.TID 0001.0001) // =======================================================
(PID.TID 0001.0001) // Begin MONITOR dynamic field statistics
(PID.TID 0001.0001) // =======================================================
(PID.TID 0001.0001) %MON time_tsnumber                =                 72095
(PID.TID 0001.0001) %MON time_secondsf                =   6.2290080000000E+09
(PID.TID 0001.0001) %MON dynstat_eta_max              =   8.9364696075929E-01
(PID.TID 0001.0001) %MON dynstat_eta_min              =  -1.6068199408253E+00
(PID.TID 0001.0001) %MON dynstat_eta_mean             =   1.4564971607082E-14
(PID.TID 0001.0001) %MON dynstat_eta_sd               =   6.0053003689053E-01
(PID.TID 0001.0001) %MON dynstat_eta_del2             =   1.1462810824560E-02
(PID.TID 0001.0001) %MON dynstat_uvel_max             =   1.9559027351853E-01
(PID.TID 0001.0001) %MON dynstat_uvel_min             =  -2.4433573845894E-01
(PID.TID 0001.0001) %MON dynstat_uvel_mean            =  -4.3983456975595E-04
(PID.TID 0001.0001) %MON dynstat_uvel_sd              =   1.1844862682482E-02
(PID.TID 0001.0001) %MON dynstat_uvel_del2            =   1.5734134051729E-03
(PID.TID 0001.0001) %MON dynstat_vvel_max             =   1.7962297701542E-01
(PID.TID 0001.0001) %MON dynstat_vvel_min             =  -2.2066203014164E-01
(PID.TID 0001.0001) %MON dynstat_vvel_mean            =  -3.4781871359097E-04
(PID.TID 0001.0001) %MON dynstat_vvel_sd              =   1.2631599589095E-02
(PID.TID 0001.0001) %MON dynstat_vvel_del2            =   1.6060458926113E-03
(PID.TID 0001.0001) %MON dynstat_wvel_max             =   1.0505139807385E-04
(PID.TID 0001.0001) %MON dynstat_wvel_min             =  -1.9441248583829E-04
(PID.TID 0001.0001) %MON dynstat_wvel_mean            =   9.4760587911622E-11
(PID.TID 0001.0001) %MON dynstat_wvel_sd              =   3.5098442725476E-06
(PID.TID 0001.0001) %MON dynstat_wvel_del2            =   8.5033141221997E-07
(PID.TID 0001.0001) %MON dynstat_theta_max            =   3.1452301836297E+01
(PID.TID 0001.0001) %MON dynstat_theta_min            =  -4.0295011721915E+00
(PID.TID 0001.0001) %MON dynstat_theta_mean           =   3.9130313450647E+00
(PID.TID 0001.0001) %MON dynstat_theta_sd             =   4.5903579587344E+00
(PID.TID 0001.0001) %MON dynstat_theta_del2           =   8.9681732369522E-02
(PID.TID 0001.0001) %MON dynstat_salt_max             =   4.1436717769337E+01
(PID.TID 0001.0001) %MON dynstat_salt_min             =   1.8420598249988E+01
(PID.TID 0001.0001) %MON dynstat_salt_mean            =   3.4772157749223E+01
(PID.TID 0001.0001) %MON dynstat_salt_sd              =   5.3109492117946E-01
(PID.TID 0001.0001) %MON dynstat_salt_del2            =   1.8963897602226E-02
(PID.TID 0001.0001) %MON dynstat_sst_max              =   3.1452301836297E+01
(PID.TID 0001.0001) %MON dynstat_sst_min              =  -1.9871803086925E+00
(PID.TID 0001.0001) %MON dynstat_sst_mean             =   1.8363336258353E+01
(PID.TID 0001.0001) %MON dynstat_sst_sd               =   1.0139845371841E+01
(PID.TID 0001.0001) %MON dynstat_sst_del2             =   2.0780635073899E-01
(PID.TID 0001.0001) %MON dynstat_sss_max              =   4.1436717769337E+01
(PID.TID 0001.0001) %MON dynstat_sss_min              =   1.8420598249988E+01
(PID.TID 0001.0001) %MON dynstat_sss_mean             =   3.4620711689230E+01
(PID.TID 0001.0001) %MON dynstat_sss_sd               =   1.4526433946051E+00
(PID.TID 0001.0001) %MON dynstat_sss_del2             =   8.0342507572603E-02
(PID.TID 0001.0001) %MON extforcing_qnet_max          =   2.3385191069986E+02
(PID.TID 0001.0001) %MON extforcing_qnet_min          =  -1.7438820157456E+02
(PID.TID 0001.0001) %MON extforcing_qnet_mean         =  -2.7158852960355E-01
(PID.TID 0001.0001) %MON extforcing_qnet_sd           =   5.4888843934207E+01
(PID.TID 0001.0001) %MON extforcing_qnet_del2         =   4.5333443369964E+00
(PID.TID 0001.0001) %MON extforcing_qsw_max           =   0.0000000000000E+00
(PID.TID 0001.0001) %MON extforcing_qsw_min           =   0.0000000000000E+00
(PID.TID 0001.0001) %MON extforcing_qsw_mean          =   0.0000000000000E+00
(PID.TID 0001.0001) %MON extforcing_qsw_sd            =   0.0000000000000E+00
(PID.TID 0001.0001) %MON extforcing_qsw_del2          =   0.0000000000000E+00
(PID.TID 0001.0001) %MON extforcing_empmr_max         =   7.6494447208479E-08
(PID.TID 0001.0001) %MON extforcing_empmr_min         =  -1.5362614137596E-07
(PID.TID 0001.0001) %MON extforcing_empmr_mean        =  -1.2284999417034E-24
(PID.TID 0001.0001) %MON extforcing_empmr_sd          =   2.4051723601802E-08
(PID.TID 0001.0001) %MON extforcing_empmr_del2        =   1.2835223797615E-09
(PID.TID 0001.0001) %MON extforcing_fu_max            =   2.6957979914211E-01
(PID.TID 0001.0001) %MON extforcing_fu_min            =  -3.3101556704511E-01
(PID.TID 0001.0001) %MON extforcing_fu_mean           =  -8.6066146189868E-03
(PID.TID 0001.0001) %MON extforcing_fu_sd             =   7.2743671520989E-02
(PID.TID 0001.0001) %MON extforcing_fu_del2           =   2.7911811068245E-03
(PID.TID 0001.0001) %MON extforcing_fv_max            =   2.0361359455802E-01
(PID.TID 0001.0001) %MON extforcing_fv_min            =  -3.2528173145315E-01
(PID.TID 0001.0001) %MON extforcing_fv_mean           =  -1.2891744192518E-02
(PID.TID 0001.0001) %MON extforcing_fv_sd             =   7.3987427048056E-02
(PID.TID 0001.0001) %MON extforcing_fv_del2           =   2.9375453250759E-03
(PID.TID 0001.0001) %MON advcfl_uvel_max              =   7.6216409994656E-02
(PID.TID 0001.0001) %MON advcfl_vvel_max              =   7.5210513945289E-02
(PID.TID 0001.0001) %MON advcfl_wvel_max              =   6.3385806703502E-02
(PID.TID 0001.0001) %MON advcfl_W_hf_max              =   7.8157412911777E-02
(PID.TID 0001.0001) %MON pe_b_mean                    =   4.8043422935980E-04
(PID.TID 0001.0001) %MON ke_max                       =   3.3336484214245E-02
(PID.TID 0001.0001) %MON ke_mean                      =   1.3862353757633E-04
(PID.TID 0001.0001) %MON ke_vol                       =   1.3398024453628E+18
(PID.TID 0001.0001) %MON vort_r_min                   =  -1.3137988573413E-06
(PID.TID 0001.0001) %MON vort_r_max                   =   1.3731108165055E-06
(PID.TID 0001.0001) %MON vort_a_mean                  =  -2.0493733748264E-05
(PID.TID 0001.0001) %MON vort_a_sd                    =   7.5053957403062E-05
(PID.TID 0001.0001) %MON vort_p_mean                  =  -2.4715771097653E-05
(PID.TID 0001.0001) %MON vort_p_sd                    =   1.2777066588542E-04
(PID.TID 0001.0001) %MON surfExpan_theta_mean         =   6.1578029002421E-08
(PID.TID 0001.0001) %MON surfExpan_salt_mean          =   1.6656126889449E-08
(PID.TID 0001.0001) // =======================================================
(PID.TID 0001.0001) // End MONITOR dynamic field statistics
(PID.TID 0001.0001) // =======================================================
 DRIVER_GET_EXPORT_STATE_3D:MASK. This code is stubbed!
 DRIVER_SET_IMPORT_STATE_3D:SWHEAT. This code is stubbed!
 cg2d: Sum(rhs),rhsMax =  -9.77706804405898E-12  1.34934474207493E+00
(PID.TID 0001.0001)                    cg2d_init_res =    1.14009928930234E-01
(PID.TID 0001.0001)                       cg2d_iters =    61
(PID.TID 0001.0001)                         cg2d_res =    5.15991152872856E-07
(PID.TID 0001.0001) // =======================================================
(PID.TID 0001.0001) // Begin MONITOR dynamic field statistics
(PID.TID 0001.0001) // =======================================================
(PID.TID 0001.0001) %MON time_tsnumber                =                 72096
(PID.TID 0001.0001) %MON time_secondsf                =   6.2290944000000E+09
(PID.TID 0001.0001) %MON dynstat_eta_max              =   8.9430034087709E-01
(PID.TID 0001.0001) %MON dynstat_eta_min              =  -1.6071324016658E+00
(PID.TID 0001.0001) %MON dynstat_eta_mean             =   1.4372604057554E-14
(PID.TID 0001.0001) %MON dynstat_eta_sd               =   6.0050431073816E-01
(PID.TID 0001.0001) %MON dynstat_eta_del2             =   1.1463947257339E-02
(PID.TID 0001.0001) %MON dynstat_uvel_max             =   1.9563252435553E-01
(PID.TID 0001.0001) %MON dynstat_uvel_min             =  -2.4403108703395E-01
(PID.TID 0001.0001) %MON dynstat_uvel_mean            =  -4.3970275508515E-04
(PID.TID 0001.0001) %MON dynstat_uvel_sd              =   1.1842663692395E-02
(PID.TID 0001.0001) %MON dynstat_uvel_del2            =   1.5731716992368E-03
(PID.TID 0001.0001) %MON dynstat_vvel_max             =   1.8090213573934E-01
(PID.TID 0001.0001) %MON dynstat_vvel_min             =  -2.2051775152488E-01
(PID.TID 0001.0001) %MON dynstat_vvel_mean            =  -3.4769627480215E-04
(PID.TID 0001.0001) %MON dynstat_vvel_sd              =   1.2629583369519E-02
(PID.TID 0001.0001) %MON dynstat_vvel_del2            =   1.6061884809136E-03
(PID.TID 0001.0001) %MON dynstat_wvel_max             =   1.0520269834320E-04
(PID.TID 0001.0001) %MON dynstat_wvel_min             =  -1.9431279161906E-04
(PID.TID 0001.0001) %MON dynstat_wvel_mean            =   7.3097804755262E-11
(PID.TID 0001.0001) %MON dynstat_wvel_sd              =   3.5102719234534E-06
(PID.TID 0001.0001) %MON dynstat_wvel_del2            =   8.5054116415914E-07
(PID.TID 0001.0001) %MON dynstat_theta_max            =   3.1448594203144E+01
(PID.TID 0001.0001) %MON dynstat_theta_min            =  -4.0159825221391E+00
(PID.TID 0001.0001) %MON dynstat_theta_mean           =   3.9130115443953E+00
(PID.TID 0001.0001) %MON dynstat_theta_sd             =   4.5904482332272E+00
(PID.TID 0001.0001) %MON dynstat_theta_del2           =   8.9656423768675E-02
(PID.TID 0001.0001) %MON dynstat_salt_max             =   4.1435593518745E+01
(PID.TID 0001.0001) %MON dynstat_salt_min             =   1.8420857462967E+01
(PID.TID 0001.0001) %MON dynstat_salt_mean            =   3.4772159060190E+01
(PID.TID 0001.0001) %MON dynstat_salt_sd              =   5.3109032029070E-01
(PID.TID 0001.0001) %MON dynstat_salt_del2            =   1.8960921235892E-02
(PID.TID 0001.0001) %MON dynstat_sst_max              =   3.1448594203144E+01
(PID.TID 0001.0001) %MON dynstat_sst_min              =  -1.9866538543058E+00
(PID.TID 0001.0001) %MON dynstat_sst_mean             =   1.8358588949835E+01
(PID.TID 0001.0001) %MON dynstat_sst_sd               =   1.0147444393524E+01
(PID.TID 0001.0001) %MON dynstat_sst_del2             =   2.0742595459106E-01
(PID.TID 0001.0001) %MON dynstat_sss_max              =   4.1435593518745E+01
(PID.TID 0001.0001) %MON dynstat_sss_min              =   1.8420857462967E+01
(PID.TID 0001.0001) %MON dynstat_sss_mean             =   3.4620679031176E+01
(PID.TID 0001.0001) %MON dynstat_sss_sd               =   1.4526068164133E+00
(PID.TID 0001.0001) %MON dynstat_sss_del2             =   8.0318182505661E-02
(PID.TID 0001.0001) %MON extforcing_qnet_max          =   2.2895919529996E+02
(PID.TID 0001.0001) %MON extforcing_qnet_min          =  -1.7384347397133E+02
(PID.TID 0001.0001) %MON extforcing_qnet_mean         =   1.1409836894895E-01
(PID.TID 0001.0001) %MON extforcing_qnet_sd           =   5.5264610654359E+01
(PID.TID 0001.0001) %MON extforcing_qnet_del2         =   4.5378080653225E+00
(PID.TID 0001.0001) %MON extforcing_qsw_max           =   0.0000000000000E+00
(PID.TID 0001.0001) %MON extforcing_qsw_min           =   0.0000000000000E+00
(PID.TID 0001.0001) %MON extforcing_qsw_mean          =   0.0000000000000E+00
(PID.TID 0001.0001) %MON extforcing_qsw_sd            =   0.0000000000000E+00
(PID.TID 0001.0001) %MON extforcing_qsw_del2          =   0.0000000000000E+00
(PID.TID 0001.0001) %MON extforcing_empmr_max         =   7.6494447208479E-08
(PID.TID 0001.0001) %MON extforcing_empmr_min         =  -1.5362614137596E-07
(PID.TID 0001.0001) %MON extforcing_empmr_mean        =  -2.0474999028391E-24
(PID.TID 0001.0001) %MON extforcing_empmr_sd          =   2.4051723601802E-08
(PID.TID 0001.0001) %MON extforcing_empmr_del2        =   1.2835223797615E-09
(PID.TID 0001.0001) %MON extforcing_fu_max            =   2.7020862291527E-01
(PID.TID 0001.0001) %MON extforcing_fu_min            =  -3.3224965130307E-01
(PID.TID 0001.0001) %MON extforcing_fu_mean           =  -8.6064736624294E-03
(PID.TID 0001.0001) %MON extforcing_fu_sd             =   7.3020902349075E-02
(PID.TID 0001.0001) %MON extforcing_fu_del2           =   2.8094019238123E-03
(PID.TID 0001.0001) %MON extforcing_fv_max            =   2.0443474368647E-01
(PID.TID 0001.0001) %MON extforcing_fv_min            =  -3.2598436552315E-01
(PID.TID 0001.0001) %MON extforcing_fv_mean           =  -1.2904407538520E-02
(PID.TID 0001.0001) %MON extforcing_fv_sd             =   7.3900823234080E-02
(PID.TID 0001.0001) %MON extforcing_fv_del2           =   2.9449391755276E-03
(PID.TID 0001.0001) %MON advcfl_uvel_max              =   7.6220890322808E-02
(PID.TID 0001.0001) %MON advcfl_vvel_max              =   7.5821630867067E-02
(PID.TID 0001.0001) %MON advcfl_wvel_max              =   6.3353302625989E-02
(PID.TID 0001.0001) %MON advcfl_W_hf_max              =   7.8117307295469E-02
(PID.TID 0001.0001) %MON pe_b_mean                    =   4.8039306752380E-04
(PID.TID 0001.0001) %MON ke_max                       =   3.3274164533205E-02
(PID.TID 0001.0001) %MON ke_mean                      =   1.3857588363771E-04
(PID.TID 0001.0001) %MON ke_vol                       =   1.3398024453628E+18
(PID.TID 0001.0001) %MON vort_r_min                   =  -1.3130555335134E-06
(PID.TID 0001.0001) %MON vort_r_max                   =   1.3784237096687E-06
(PID.TID 0001.0001) %MON vort_a_mean                  =  -2.0493733748264E-05
(PID.TID 0001.0001) %MON vort_a_sd                    =   7.5053957562356E-05
(PID.TID 0001.0001) %MON vort_p_mean                  =  -2.4715771158924E-05
(PID.TID 0001.0001) %MON vort_p_sd                    =   1.2777066292570E-04
(PID.TID 0001.0001) %MON surfExpan_theta_mean         =   6.2016379265559E-08
(PID.TID 0001.0001) %MON surfExpan_salt_mean          =   1.6754328221757E-08
(PID.TID 0001.0001) // =======================================================
(PID.TID 0001.0001) // End MONITOR dynamic field statistics
(PID.TID 0001.0001) // =======================================================
 DRIVER_GET_EXPORT_STATE_3D:MASK. This code is stubbed!
