(PID.TID 0001.0001) 
(PID.TID 0001.0001) // ======================================================
(PID.TID 0001.0001) //                      MITgcm UV
(PID.TID 0001.0001) //                      =========
(PID.TID 0001.0001) // ======================================================
(PID.TID 0001.0001) // execution environment starting up...
(PID.TID 0001.0001) 
(PID.TID 0001.0001) // MITgcmUV version:  checkpoint66a
(PID.TID 0001.0001) // Build user:        trayanov
(PID.TID 0001.0001) // Build host:        boygo.gsfc.nasa.gov
(PID.TID 0001.0001) // Build date:        Wed Nov  9 16:18:20 EST 2016
(PID.TID 0001.0001) 
(PID.TID 0001.0001) // =======================================================
(PID.TID 0001.0001) // Execution Environment parameter file "eedata"
(PID.TID 0001.0001) // =======================================================
(PID.TID 0001.0001) ># Example "eedata" file
(PID.TID 0001.0001) ># Lines beginning "#" are comments
(PID.TID 0001.0001) ># nTx - No. threads per process in X
(PID.TID 0001.0001) ># nTy - No. threads per process in Y
(PID.TID 0001.0001) > &EEPARMS
(PID.TID 0001.0001) > useCubedSphereExchange=.TRUE.,
(PID.TID 0001.0001) > nTx=1,
(PID.TID 0001.0001) > nTy=1,
(PID.TID 0001.0001) > &end
(PID.TID 0001.0001) ># Note: Some systems use & as the
(PID.TID 0001.0001) ># namelist terminator. Other systems
(PID.TID 0001.0001) ># use a / character (as shown here).
(PID.TID 0001.0001) 
(PID.TID 0001.0001) // =======================================================
(PID.TID 0001.0001) // Computational Grid Specification ( see files "SIZE.h" )
(PID.TID 0001.0001) //                                  ( and "eedata"       )
(PID.TID 0001.0001) // =======================================================
(PID.TID 0001.0001)      nPx =    6 ; /* No. processes in X */
(PID.TID 0001.0001)      nPy =    1 ; /* No. processes in Y */
(PID.TID 0001.0001)      nSx =    1 ; /* No. tiles in X per process */
(PID.TID 0001.0001)      nSy =    1 ; /* No. tiles in Y per process */
(PID.TID 0001.0001)      sNx =   32 ; /* Tile size in X */
(PID.TID 0001.0001)      sNy =   32 ; /* Tile size in Y */
(PID.TID 0001.0001)      OLx =    4 ; /* Tile overlap distance in X */
(PID.TID 0001.0001)      OLy =    4 ; /* Tile overlap distance in Y */
(PID.TID 0001.0001)      nTx =    1 ; /* No. threads in X per process */
(PID.TID 0001.0001)      nTy =    1 ; /* No. threads in Y per process */
(PID.TID 0001.0001)       Nr =   15 ; /* No. levels in the vertical   */
(PID.TID 0001.0001)       Nx =  192 ; /* Total domain size in X ( = nPx*nSx*sNx ) */
(PID.TID 0001.0001)       Ny =   32 ; /* Total domain size in Y ( = nPy*nSy*sNy ) */
(PID.TID 0001.0001)   nTiles =    1 ; /* Total no. tiles per process ( = nSx*nSy ) */
(PID.TID 0001.0001)   nProcs =    6 ; /* Total no. processes ( = nPx*nPy ) */
(PID.TID 0001.0001) nThreads =    1 ; /* Total no. threads per process ( = nTx*nTy ) */
(PID.TID 0001.0001) usingMPI =    T ; /* Flag used to control whether MPI is in use */
(PID.TID 0001.0001)                   /*  note: To execute a program with MPI calls */
(PID.TID 0001.0001)                   /*  it must be launched appropriately e.g     */
(PID.TID 0001.0001)                   /*  "mpirun -np 64 ......"                    */
(PID.TID 0001.0001) useCoupler=    F ;/* Flag used to control communications with   */
(PID.TID 0001.0001)                   /*  other model components, through a coupler */
(PID.TID 0001.0001) debugMode =    F ; /* print debug msg. (sequence of S/R calls)  */
(PID.TID 0001.0001) printMapIncludesZeros=    F ; /* print zeros in Std.Output maps */
(PID.TID 0001.0001) maxLengthPrt1D=   65 /* maxLength of 1D array printed to StdOut */
(PID.TID 0001.0001) 
(PID.TID 0001.0001) ======= Starting MPI parallel Run =========
(PID.TID 0001.0001)  My Processor Name (len:  8 ) = heracles
(PID.TID 0001.0001)  Located at (  1,  0) on processor grid (0:  5,0:  0)
(PID.TID 0001.0001)  Origin at  (    33,     1) on global grid (1:   192,1:    32)
(PID.TID 0001.0001)  North neighbor = processor 0001
(PID.TID 0001.0001)  South neighbor = processor 0001
(PID.TID 0001.0001)   East neighbor = processor 0002
(PID.TID 0001.0001)   West neighbor = processor 0000
(PID.TID 0001.0001) // ======================================================
(PID.TID 0001.0001) // Mapping of tiles to threads
(PID.TID 0001.0001) // ======================================================
(PID.TID 0001.0001) // -o- Thread   1, tiles (   1:   1,   1:   1)
(PID.TID 0001.0001) 
(PID.TID 0001.0001) W2_READPARMS: file data.exch2 not found
(PID.TID 0001.0001) => use W2_EXCH2 default: regular 6-facets Cube
(PID.TID 0001.0001) W2_useE2ioLayOut=    T ;/* T: use Exch2 glob IO map; F: use model default */
(PID.TID 0001.0001) W2_mapIO        =  -1 ; /* select option for Exch2 global-IO map */
(PID.TID 0001.0001) W2_printMsg     =  -1 ; /* select option for printing information */
(PID.TID 0001.0001) ===== Start setting W2 TOPOLOGY:
(PID.TID 0001.0001)  write to log-file: w2_tile_topology.0001.log
(PID.TID 0001.0001) =====       setting W2 TOPOLOGY: Done
(PID.TID 0001.0001) 
(PID.TID 0001.0001)  INI_PARMS: opening model parameter file "data"
(PID.TID 0001.0001)  OPEN_COPY_DATA_FILE: opening file data
(PID.TID 0001.0001) // =======================================================
(PID.TID 0001.0001) // Parameter file "data"
(PID.TID 0001.0001) // =======================================================
(PID.TID 0001.0001) ># ====================
(PID.TID 0001.0001) ># | Model parameters |
(PID.TID 0001.0001) ># ====================
(PID.TID 0001.0001) >#
(PID.TID 0001.0001) ># Continuous equation parameters
(PID.TID 0001.0001) > &PARM01
(PID.TID 0001.0001) > tRef=15*20.,
(PID.TID 0001.0001) > sRef=15*35.,
(PID.TID 0001.0001) > viscAh =3.E5,
(PID.TID 0001.0001) >#- biharmonic Viscosity: 3.e15 is close to the stability limit with deltaTmom=20mn
(PID.TID 0001.0001) >#viscA4 =3.E15,
(PID.TID 0001.0001) > viscAr =1.E-3,
(PID.TID 0001.0001) > diffKhT=0.,
(PID.TID 0001.0001) > diffK4T=0.,
(PID.TID 0001.0001) > diffKrT=3.E-5,
(PID.TID 0001.0001) > diffKhS=0.,
(PID.TID 0001.0001) > diffK4S=0.,
(PID.TID 0001.0001) > diffKrS=3.E-5,
(PID.TID 0001.0001) > ivdc_kappa=10.,
(PID.TID 0001.0001) > implicitDiffusion=.TRUE.,
(PID.TID 0001.0001) > rotationPeriod=86400.,
(PID.TID 0001.0001) > gravity=9.81,
(PID.TID 0001.0001) > rhonil=1035.,
(PID.TID 0001.0001) > rhoConstFresh=1000.,
(PID.TID 0001.0001) > eosType='JMD95Z',
(PID.TID 0001.0001) > staggerTimeStep=.TRUE.,
(PID.TID 0001.0001) > vectorInvariantMomentum=.TRUE.,
(PID.TID 0001.0001) > implicitFreeSurface=.TRUE.,
(PID.TID 0001.0001) > exactConserv=.TRUE.,
(PID.TID 0001.0001) > select_rStar=2,
(PID.TID 0001.0001) > nonlinFreeSurf=4,
(PID.TID 0001.0001) > hFacInf=0.2,
(PID.TID 0001.0001) > hFacSup=2.0,
(PID.TID 0001.0001) > useRealFreshWaterFlux=.TRUE.,
(PID.TID 0001.0001) > allowFreezing=.TRUE.,
(PID.TID 0001.0001) > hFacMin=.1,
(PID.TID 0001.0001) > hFacMinDr=20.,
(PID.TID 0001.0001) > readBinaryPrec=64,
(PID.TID 0001.0001) > useSingleCpuIo=.TRUE.,
(PID.TID 0001.0001) > &end
(PID.TID 0001.0001) >
(PID.TID 0001.0001) ># Elliptic solver parameters
(PID.TID 0001.0001) > &PARM02
(PID.TID 0001.0001) > cg2dMaxIters=200,
(PID.TID 0001.0001) > cg2dTargetResidual=1.E-9,
(PID.TID 0001.0001) > &end
(PID.TID 0001.0001) >
(PID.TID 0001.0001) ># Time stepping parameters
(PID.TID 0001.0001) > &PARM03
(PID.TID 0001.0001) > nIter0=72000,
(PID.TID 0001.0001) > nTimeSteps=20,
(PID.TID 0001.0001) > deltaTmom   =1200.,
(PID.TID 0001.0001) > deltaTtracer=86400.,
(PID.TID 0001.0001) > deltaTfreesurf=86400.,
(PID.TID 0001.0001) > deltaTClock =86400.,
(PID.TID 0001.0001) > abEps = 0.1,
(PID.TID 0001.0001) >#forcing_In_AB=.FALSE.,
(PID.TID 0001.0001) > tracForcingOutAB=1,
(PID.TID 0001.0001) > pChkptFreq  =1728000.,
(PID.TID 0001.0001) >#chkptFreq   =311040000.,
(PID.TID 0001.0001) > taveFreq    =1244160000.,
(PID.TID 0001.0001) > dumpFreq    =622080000.,
(PID.TID 0001.0001) > monitorFreq =31104000.,
(PID.TID 0001.0001) > periodicExternalForcing=.TRUE.,
(PID.TID 0001.0001) > externForcingPeriod=2592000.,
(PID.TID 0001.0001) > externForcingCycle=31104000.,
(PID.TID 0001.0001) ># 2 months restoring timescale for temperature
(PID.TID 0001.0001) > tauThetaClimRelax = 5184000.,
(PID.TID 0001.0001) ># 2yrs restoring timescale for salinity
(PID.TID 0001.0001) > tauSaltClimRelax = 62208000.,
(PID.TID 0001.0001) > monitorFreq =1.,
(PID.TID 0001.0001) > &end
(PID.TID 0001.0001) >
(PID.TID 0001.0001) ># Gridding parameters
(PID.TID 0001.0001) > &PARM04
(PID.TID 0001.0001) > usingCurvilinearGrid=.TRUE.,
(PID.TID 0001.0001) > horizGridFile='grid_cs32',
(PID.TID 0001.0001) > delR= 50., 70., 100., 140., 190.,
(PID.TID 0001.0001) >       240., 290., 340., 390., 440.,
(PID.TID 0001.0001) >       490., 540., 590., 640., 690.,
(PID.TID 0001.0001) > &end
(PID.TID 0001.0001) >
(PID.TID 0001.0001) ># Input datasets
(PID.TID 0001.0001) > &PARM05
(PID.TID 0001.0001) > bathyFile      ='bathy_Hmin50.bin',
(PID.TID 0001.0001) > hydrogThetaFile='lev_T_cs_15k.bin',
(PID.TID 0001.0001) > hydrogSaltFile ='lev_S_cs_15k.bin',
(PID.TID 0001.0001) > zonalWindFile  ='trenberth_taux.bin',
(PID.TID 0001.0001) > meridWindFile  ='trenberth_tauy.bin',
(PID.TID 0001.0001) > thetaClimFile  ='lev_surfT_cs_12m.bin',
(PID.TID 0001.0001) > saltClimFile   ='lev_surfS_cs_12m.bin',
(PID.TID 0001.0001) > surfQFile      ='shiQnet_cs32.bin',
(PID.TID 0001.0001) > EmPmRFile      ='shiEmPR_cs32.bin',
(PID.TID 0001.0001) > &end
(PID.TID 0001.0001) 
(PID.TID 0001.0001)  INI_PARMS ; starts to read PARM01
(PID.TID 0001.0001)  INI_PARMS ; read PARM01 : OK
(PID.TID 0001.0001)  INI_PARMS ; starts to read PARM02
(PID.TID 0001.0001)  INI_PARMS ; read PARM02 : OK
(PID.TID 0001.0001)  INI_PARMS ; starts to read PARM03
(PID.TID 0001.0001)  INI_PARMS ; read PARM03 : OK
(PID.TID 0001.0001)  INI_PARMS ; starts to read PARM04
(PID.TID 0001.0001)  INI_PARMS ; read PARM04 : OK
(PID.TID 0001.0001)  INI_PARMS ; starts to read PARM05
(PID.TID 0001.0001)  INI_PARMS ; read PARM05 : OK
(PID.TID 0001.0001)  INI_PARMS: finished reading file "data"
(PID.TID 0001.0001)  PACKAGES_BOOT: opening data.pkg
(PID.TID 0001.0001)  OPEN_COPY_DATA_FILE: opening file data.pkg
(PID.TID 0001.0001) // =======================================================
(PID.TID 0001.0001) // Parameter file "data.pkg"
(PID.TID 0001.0001) // =======================================================
(PID.TID 0001.0001) ># Packages
(PID.TID 0001.0001) > &PACKAGES
(PID.TID 0001.0001) > useGMRedi=.TRUE.,
(PID.TID 0001.0001) >#useDiagnostics=.TRUE.,
(PID.TID 0001.0001) >#useMNC=.TRUE.,
(PID.TID 0001.0001) >#useBulkforce=.TRUE.,
(PID.TID 0001.0001) >#useThermSeaIce=.TRUE.,
(PID.TID 0001.0001) > &end
(PID.TID 0001.0001) 
(PID.TID 0001.0001)  PACKAGES_BOOT: finished reading data.pkg
(PID.TID 0001.0001)  PACKAGES_BOOT: On/Off package Summary
 --------  pkgs with a standard "usePKG" On/Off switch in "data.pkg":  --------
 pkg/gmredi               compiled   and   used ( useGMRedi                = T )
 pkg/cal                  compiled but not used ( useCAL                   = F )
 pkg/exf                  compiled but not used ( useEXF                   = F )
 pkg/bulk_force           compiled but not used ( useBulkForce             = F )
 pkg/seaice               compiled but not used ( useSEAICE                = F )
 pkg/thsice               compiled but not used ( useThSIce                = F )
 pkg/diagnostics          compiled but not used ( useDiagnostics           = F )
 -------- pkgs without standard "usePKG" On/Off switch in "data.pkg":  --------
 pkg/generic_advdiff      compiled   and   used ( useGAD                   = T )
 pkg/mom_common           compiled   and   used ( momStepping              = T )
 pkg/mom_vecinv           compiled   and   used ( +vectorInvariantMomentum = T )
 pkg/mom_fluxform         compiled but not used ( & not vectorInvariantMom = F )
 pkg/monitor              compiled   and   used ( monitorFreq > 0.         = T )
 pkg/timeave              compiled   and   used ( taveFreq > 0.            = T )
 pkg/debug                compiled but not used ( debugMode                = F )
 pkg/exch2                compiled   and   used
 pkg/rw                   compiled   and   used
 pkg/mdsio                compiled   and   used
(PID.TID 0001.0001)  PACKAGES_BOOT: End of package Summary
(PID.TID 0001.0001) 
(PID.TID 0001.0001)  GM_READPARMS: opening data.gmredi
(PID.TID 0001.0001)  OPEN_COPY_DATA_FILE: opening file data.gmredi
(PID.TID 0001.0001) // =======================================================
(PID.TID 0001.0001) // Parameter file "data.gmredi"
(PID.TID 0001.0001) // =======================================================
(PID.TID 0001.0001) ># GM+Redi package parameters:
(PID.TID 0001.0001) >
(PID.TID 0001.0001) >#-from MOM :
(PID.TID 0001.0001) ># GM_background_K: 	G & Mc.W  diffusion coefficient
(PID.TID 0001.0001) ># GM_maxSlope    :	max slope of isopycnals
(PID.TID 0001.0001) ># GM_Scrit       :	transition for scaling diffusion coefficient
(PID.TID 0001.0001) ># GM_Sd          :	half width scaling for diffusion coefficient
(PID.TID 0001.0001) ># GM_taper_scheme:	slope clipping or one of the tapering schemes
(PID.TID 0001.0001) ># GM_Kmin_horiz  :	horizontal diffusion minimum value
(PID.TID 0001.0001) >
(PID.TID 0001.0001) >#-Option parameters (needs to "define" options in GMREDI_OPTIONS.h")
(PID.TID 0001.0001) ># GM_isopycK     :	isopycnal diffusion coefficient (default=GM_background_K)
(PID.TID 0001.0001) ># GM_AdvForm     :	turn on GM Advective form       (default=Skew flux form)
(PID.TID 0001.0001) >
(PID.TID 0001.0001) > &GM_PARM01
(PID.TID 0001.0001) >  GM_background_K    = 800.,
(PID.TID 0001.0001) >  GM_taper_scheme    = 'gkw91',
(PID.TID 0001.0001) >  GM_maxSlope        = 1.e-2,
(PID.TID 0001.0001) >  GM_Kmin_horiz      = 50.,
(PID.TID 0001.0001) >  GM_Scrit           = 4.e-3,
(PID.TID 0001.0001) >  GM_Sd              = 1.e-3,
(PID.TID 0001.0001) ># GM_Visbeck_alpha   = 0.,
(PID.TID 0001.0001) ># GM_Visbeck_length  = 2.e+5,
(PID.TID 0001.0001) ># GM_Visbeck_depth   = 1.e+3,
(PID.TID 0001.0001) ># GM_Visbeck_maxval_K= 2.5e+3,
(PID.TID 0001.0001) > &end
(PID.TID 0001.0001) >
(PID.TID 0001.0001) >
(PID.TID 0001.0001) 
(PID.TID 0001.0001)  GM_READPARMS: finished reading data.gmredi
(PID.TID 0001.0001) SET_PARMS: done
(PID.TID 0001.0001) Enter INI_VERTICAL_GRID: setInterFDr=    T ; setCenterDr=    F
(PID.TID 0001.0001) tile:   2 ; Read from file grid_cs32.face002.bin
(PID.TID 0001.0001)   => xC yC dxF dyF rA xG yG dxV dyU rAz dxC dyC rAw rAs dxG dyG AngleCS AngleSN
(PID.TID 0001.0001) // =======================================================
(PID.TID 0001.0001) // Field Model R_low (ini_masks_etc)
(PID.TID 0001.0001) // CMIN =         -5.200000000000000E+03
(PID.TID 0001.0001) // CMAX =         -5.000000000000000E+01
(PID.TID 0001.0001) // CINT =          1.907407407407407E+02
(PID.TID 0001.0001) // SYMBOLS (CMIN->CMAX): -abcdefghijklmnopqrstuvwxyz+
(PID.TID 0001.0001) //                  0.0: .
(PID.TID 0001.0001) // RANGE I (Lo:Hi:Step):(    29:    68:     1)
(PID.TID 0001.0001) // RANGE J (Lo:Hi:Step):(    36:    -3:    -1)
(PID.TID 0001.0001) // RANGE K (Lo:Hi:Step):(   1:   1:   1)
(PID.TID 0001.0001) // =======================================================
(PID.TID 0001.0001) K =   1
(PID.TID 0001.0001) //                I=38      I=48      I=58      I=68
(PID.TID 0001.0001) // |--J--|901234567|901234567|901234567|901234567|
(PID.TID 0001.0001) //     36 ................................okn.skko
(PID.TID 0001.0001) //     35 ................................kqnzrqqk
(PID.TID 0001.0001) //     34 ...............................vkqn+xnnn
(PID.TID 0001.0001) //     33 ...............................xsrxzz+z.
(PID.TID 0001.0001) //     32 .............................++..u+....z
(PID.TID 0001.0001) //     31 .............................+++++.ztsvd
(PID.TID 0001.0001) //     30 .............................+++++wmegt-
(PID.TID 0001.0001) //     29 ..............................+++yqddhp-
(PID.TID 0001.0001) //     28 ..............................++zwgfcfk-
(PID.TID 0001.0001) //     27 .......+++....................++vnbbbcle
(PID.TID 0001.0001) //     26 .......++sy...................+tq-fdbblc
(PID.TID 0001.0001) //     25 .w.......njo+................+x-----bcgi
(PID.TID 0001.0001) //     24 .w.......likn+.....++.....++znpa----bbdi
(PID.TID 0001.0001) //     23 .zz.....nhhijz....tqq.....+ujgzgd---abci
(PID.TID 0001.0001) //     22 ..zz..rnjffggm...nlmn+....+sffzya--aabci
(PID.TID 0001.0001) //     21 ...ysstlgeeeeoz..ijklt+....lfjzzf---adfc
(PID.TID 0001.0001) //     20 ......lcgfdddhq.+hiilnz++.+oquxyz--adgkf
(PID.TID 0001.0001) //     19 ......aafifccgnrzgghjry.+++sr+lq.--edfkk
(PID.TID 0001.0001) //     18 .....jaacfihggokeeffgt..++++..hhlfdeddke
(PID.TID 0001.0001) //     17 ....icaaccfihfoedddeedy..++...nnqwgfeeke
(PID.TID 0001.0001) //     16 ...jdbaddddgifkccccdccd+.++..++ynvz.tkkq
(PID.TID 0001.0001) //     15 ..sfcbbngfffigcaaabdbcac+.+++++zgmpx...y
(PID.TID 0001.0001) //     14 ..ofddchohffikaaaaabaaa-aw+.+ysnggox++..
(PID.TID 0001.0001) //     13 ..nhfdffholghkaaaaaba-a---flkkuswyy++++y
(PID.TID 0001.0001) //     12 ..skiqddeiiiifaaabae--a---dd--iu+++.+++s
(PID.TID 0001.0001) //     11 ..nkn.fdemijidaaaabi-------a--q+....++.z
(PID.TID 0001.0001) //     10 .uos..dcemikkfdcaabi-------equ+.........
(PID.TID 0001.0001) //      9 +nnv.+ccffhkkiddaadha-----as++..........
(PID.TID 0001.0001) //      8 vkky.jceddefijffdddhb--a-afv............
(PID.TID 0001.0001) //      7 qiht.faaaabdgijgfededcdcb-f+............
(PID.TID 0001.0001) //      6 qdeisc----dfefgifffkklldc--v............
(PID.TID 0001.0001) //      5 ibcimlaaacfbddfjjhijeehf-a-c............
(PID.TID 0001.0001) //      4 abdopfcbdgdbcdehlihgfddc--ms............
(PID.TID 0001.0001) //      3 -aesphfdhgabddeflihhgfecbaaayq+++++.....
(PID.TID 0001.0001) //      2 -aesqhffiea-cdeflkkljifeddcba---bry+....
(PID.TID 0001.0001) //      1 aafonhglid--adfgkkkklkhffddca-----s++++.
(PID.TID 0001.0001) //      0 dfkllilmgebaadfijjiiikjhffdcba-----lllgn
(PID.TID 0001.0001) //     -1 kkiikimiiheccfurkiffhijjigfecb-----l----
(PID.TID 0001.0001) //     -2 mlmlfklklkhednwwsheeghhijjgfdca----g---a
(PID.TID 0001.0001) //     -3 kkimdkmknoiedcfjvpddegghhhhgfdcbaa-n---a
(PID.TID 0001.0001) // =======================================================
(PID.TID 0001.0001) // END OF FIELD                                          =
(PID.TID 0001.0001) // =======================================================
(PID.TID 0001.0001) 
(PID.TID 0001.0001) // =======================================================
(PID.TID 0001.0001) // Field Model Ro_surf (ini_masks_etc)
(PID.TID 0001.0001) // CMIN =         -7.105427357601002E-15
(PID.TID 0001.0001) // CMAX =         -7.105427357601002E-15
(PID.TID 0001.0001) // CINT =          0.000000000000000E+00
(PID.TID 0001.0001) // SYMBOLS (CMIN->CMAX): -abcdefghijklmnopqrstuvwxyz+
(PID.TID 0001.0001) //                  0.0: .
(PID.TID 0001.0001) // RANGE I (Lo:Hi:Step):(    29:    68:     1)
(PID.TID 0001.0001) // RANGE J (Lo:Hi:Step):(    36:    -3:    -1)
(PID.TID 0001.0001) // RANGE K (Lo:Hi:Step):(   1:   1:   1)
(PID.TID 0001.0001) // =======================================================
(PID.TID 0001.0001) // =======================================================
(PID.TID 0001.0001) // END OF FIELD                                          =
(PID.TID 0001.0001) // =======================================================
(PID.TID 0001.0001) 
(PID.TID 0001.0001) // =======================================================
(PID.TID 0001.0001) // Field hFacC at iteration          0
(PID.TID 0001.0001) // CMIN =          1.000000000000000E+00
(PID.TID 0001.0001) // CMAX =          1.000000000000000E+00
(PID.TID 0001.0001) // CINT =          0.000000000000000E+00
(PID.TID 0001.0001) // SYMBOLS (CMIN->CMAX): -abcdefghijklmnopqrstuvwxyz+
(PID.TID 0001.0001) //                  0.0: .
(PID.TID 0001.0001) // RANGE I (Lo:Hi:Step):(    29:    68:     1)
(PID.TID 0001.0001) // RANGE J (Lo:Hi:Step):(    36:    -3:    -1)
(PID.TID 0001.0001) // RANGE K (Lo:Hi:Step):(   1:   1:   1)
(PID.TID 0001.0001) // =======================================================
(PID.TID 0001.0001) // =======================================================
(PID.TID 0001.0001) // END OF FIELD                                          =
(PID.TID 0001.0001) // =======================================================
(PID.TID 0001.0001) 
(PID.TID 0001.0001) // =======================================================
(PID.TID 0001.0001) // Field hFacW at iteration          0
(PID.TID 0001.0001) // CMIN =          1.000000000000000E+00
(PID.TID 0001.0001) // CMAX =          1.000000000000000E+00
(PID.TID 0001.0001) // CINT =          0.000000000000000E+00
(PID.TID 0001.0001) // SYMBOLS (CMIN->CMAX): -abcdefghijklmnopqrstuvwxyz+
(PID.TID 0001.0001) //                  0.0: .
(PID.TID 0001.0001) // RANGE I (Lo:Hi:Step):(    29:    68:     1)
(PID.TID 0001.0001) // RANGE J (Lo:Hi:Step):(    36:    -3:    -1)
(PID.TID 0001.0001) // RANGE K (Lo:Hi:Step):(   1:   1:   1)
(PID.TID 0001.0001) // =======================================================
(PID.TID 0001.0001) // =======================================================
(PID.TID 0001.0001) // END OF FIELD                                          =
(PID.TID 0001.0001) // =======================================================
(PID.TID 0001.0001) 
(PID.TID 0001.0001) // =======================================================
(PID.TID 0001.0001) // Field hFacS at iteration          0
(PID.TID 0001.0001) // CMIN =          1.000000000000000E+00
(PID.TID 0001.0001) // CMAX =          1.000000000000000E+00
(PID.TID 0001.0001) // CINT =          0.000000000000000E+00
(PID.TID 0001.0001) // SYMBOLS (CMIN->CMAX): -abcdefghijklmnopqrstuvwxyz+
(PID.TID 0001.0001) //                  0.0: .
(PID.TID 0001.0001) // RANGE I (Lo:Hi:Step):(    29:    68:     1)
(PID.TID 0001.0001) // RANGE J (Lo:Hi:Step):(    36:    -3:    -1)
(PID.TID 0001.0001) // RANGE K (Lo:Hi:Step):(   1:   1:   1)
(PID.TID 0001.0001) // =======================================================
(PID.TID 0001.0001) // =======================================================
(PID.TID 0001.0001) // END OF FIELD                                          =
(PID.TID 0001.0001) // =======================================================
(PID.TID 0001.0001) 
(PID.TID 0001.0001) GAD_INIT_FIXED: GAD_OlMinSize=  1  0  1
(PID.TID 0001.0001) 
(PID.TID 0001.0001) // ===================================
(PID.TID 0001.0001) // GAD parameters :
(PID.TID 0001.0001) // ===================================
(PID.TID 0001.0001) tempAdvScheme =   /* Temp. Horiz.Advection scheme selector */
(PID.TID 0001.0001)                       2
(PID.TID 0001.0001)     ;
(PID.TID 0001.0001) tempVertAdvScheme =   /* Temp. Vert. Advection scheme selector */
(PID.TID 0001.0001)                       2
(PID.TID 0001.0001)     ;
(PID.TID 0001.0001) tempMultiDimAdvec =   /* use Muti-Dim Advec method for Temp */
(PID.TID 0001.0001)                   F
(PID.TID 0001.0001)     ;
(PID.TID 0001.0001) tempSOM_Advection = /* use 2nd Order Moment Advection for Temp */
(PID.TID 0001.0001)                   F
(PID.TID 0001.0001)     ;
(PID.TID 0001.0001) AdamsBashforthGt = /* apply Adams-Bashforth extrapolation on Gt */
(PID.TID 0001.0001)                   T
(PID.TID 0001.0001)     ;
(PID.TID 0001.0001) AdamsBashforth_T = /* apply Adams-Bashforth extrapolation on Temp */
(PID.TID 0001.0001)                   F
(PID.TID 0001.0001)     ;
(PID.TID 0001.0001) saltAdvScheme =   /* Salt. Horiz.advection scheme selector */
(PID.TID 0001.0001)                       2
(PID.TID 0001.0001)     ;
(PID.TID 0001.0001) saltVertAdvScheme =   /* Salt. Vert. Advection scheme selector */
(PID.TID 0001.0001)                       2
(PID.TID 0001.0001)     ;
(PID.TID 0001.0001) saltMultiDimAdvec =   /* use Muti-Dim Advec method for Salt */
(PID.TID 0001.0001)                   F
(PID.TID 0001.0001)     ;
(PID.TID 0001.0001) saltSOM_Advection = /* use 2nd Order Moment Advection for Salt */
(PID.TID 0001.0001)                   F
(PID.TID 0001.0001)     ;
(PID.TID 0001.0001) AdamsBashforthGs = /* apply Adams-Bashforth extrapolation on Gs */
(PID.TID 0001.0001)                   T
(PID.TID 0001.0001)     ;
(PID.TID 0001.0001) AdamsBashforth_S = /* apply Adams-Bashforth extrapolation on Salt */
(PID.TID 0001.0001)                   F
(PID.TID 0001.0001)     ;
(PID.TID 0001.0001) // ===================================
(PID.TID 0001.0001) INI_GLOBAL_DOMAIN: Found  19 CS-corner Pts in the domain
(PID.TID 0001.0001) INI_CG2D: CG2D normalisation factor =  1.9156564154949553E-04
(PID.TID 0001.0001) 
(PID.TID 0001.0001) // =======================================================
(PID.TID 0001.0001) // Model configuration
(PID.TID 0001.0001) // =======================================================
(PID.TID 0001.0001) //
(PID.TID 0001.0001) // "Physical" paramters ( PARM01 in namelist )
(PID.TID 0001.0001) //
(PID.TID 0001.0001) buoyancyRelation = /* Type of relation to get Buoyancy */
(PID.TID 0001.0001)               'OCEANIC'
(PID.TID 0001.0001)     ;
(PID.TID 0001.0001) fluidIsAir   =  /* fluid major constituent is Air */
(PID.TID 0001.0001)                   F
(PID.TID 0001.0001)     ;
(PID.TID 0001.0001) fluidIsWater =  /* fluid major constituent is Water */
(PID.TID 0001.0001)                   T
(PID.TID 0001.0001)     ;
(PID.TID 0001.0001) usingPCoords =  /* use p (or p*) vertical coordinate */
(PID.TID 0001.0001)                   F
(PID.TID 0001.0001)     ;
(PID.TID 0001.0001) usingZCoords =  /* use z (or z*) vertical coordinate */
(PID.TID 0001.0001)                   T
(PID.TID 0001.0001)     ;
(PID.TID 0001.0001) tRef =   /* Reference temperature profile ( oC or K ) */
(PID.TID 0001.0001)    15 @  2.000000000000000E+01              /* K =  1: 15 */
(PID.TID 0001.0001)     ;
(PID.TID 0001.0001) sRef =   /* Reference salinity profile ( psu ) */
(PID.TID 0001.0001)    15 @  3.500000000000000E+01              /* K =  1: 15 */
(PID.TID 0001.0001)     ;
(PID.TID 0001.0001) useStrainTensionVisc= /* Use StrainTension Form of Viscous Operator */
(PID.TID 0001.0001)                   F
(PID.TID 0001.0001)     ;
(PID.TID 0001.0001) useVariableVisc = /* Use variable horizontal viscosity */
(PID.TID 0001.0001)                   F
(PID.TID 0001.0001)     ;
(PID.TID 0001.0001) useHarmonicVisc = /* Use harmonic horizontal viscosity */
(PID.TID 0001.0001)                   T
(PID.TID 0001.0001)     ;
(PID.TID 0001.0001) useBiharmonicVisc= /* Use biharmonic horiz.  viscosity */
(PID.TID 0001.0001)                   F
(PID.TID 0001.0001)     ;
(PID.TID 0001.0001) useSmag3D = /* Use isotropic 3-D Smagorinsky viscosity */
(PID.TID 0001.0001)                   F
(PID.TID 0001.0001)     ;
(PID.TID 0001.0001) viscAh  =   /* Lateral harmonic viscosity ( m^2/s ) */
(PID.TID 0001.0001)                 3.000000000000000E+05
(PID.TID 0001.0001)     ;
(PID.TID 0001.0001) viscA4  =   /* Lateral biharmonic viscosity ( m^4/s ) */
(PID.TID 0001.0001)                 0.000000000000000E+00
(PID.TID 0001.0001)     ;
(PID.TID 0001.0001) no_slip_sides =  /* Viscous BCs: No-slip sides */
(PID.TID 0001.0001)                   T
(PID.TID 0001.0001)     ;
(PID.TID 0001.0001) sideDragFactor = /* side-drag scaling factor (non-dim) */
(PID.TID 0001.0001)                 2.000000000000000E+00
(PID.TID 0001.0001)     ;
(PID.TID 0001.0001) viscArNr = /* vertical profile of vertical viscosity ( m^2/s )*/
(PID.TID 0001.0001)    15 @  1.000000000000000E-03              /* K =  1: 15 */
(PID.TID 0001.0001)     ;
(PID.TID 0001.0001) no_slip_bottom =  /* Viscous BCs: No-slip bottom */
(PID.TID 0001.0001)                   T
(PID.TID 0001.0001)     ;
(PID.TID 0001.0001) bottomVisc_pCell = /* Partial-cell in bottom Visc. BC */
(PID.TID 0001.0001)                   F
(PID.TID 0001.0001)     ;
(PID.TID 0001.0001) bottomDragLinear = /* linear bottom-drag coefficient ( m/s ) */
(PID.TID 0001.0001)                 0.000000000000000E+00
(PID.TID 0001.0001)     ;
(PID.TID 0001.0001) bottomDragQuadratic = /* quadratic bottom-drag coefficient (-) */
(PID.TID 0001.0001)                 0.000000000000000E+00
(PID.TID 0001.0001)     ;
(PID.TID 0001.0001) selectBotDragQuadr = /* select quadratic bottom drag options */
(PID.TID 0001.0001)                      -1
(PID.TID 0001.0001)     ;
(PID.TID 0001.0001) diffKhT =   /* Laplacian diffusion of heat laterally ( m^2/s ) */
(PID.TID 0001.0001)                 0.000000000000000E+00
(PID.TID 0001.0001)     ;
(PID.TID 0001.0001) diffK4T =   /* Biharmonic diffusion of heat laterally ( m^4/s ) */
(PID.TID 0001.0001)                 0.000000000000000E+00
(PID.TID 0001.0001)     ;
(PID.TID 0001.0001) diffKhS =   /* Laplacian diffusion of salt laterally ( m^2/s ) */
(PID.TID 0001.0001)                 0.000000000000000E+00
(PID.TID 0001.0001)     ;
(PID.TID 0001.0001) diffK4S =   /* Biharmonic diffusion of salt laterally ( m^4/s ) */
(PID.TID 0001.0001)                 0.000000000000000E+00
(PID.TID 0001.0001)     ;
(PID.TID 0001.0001) diffKrNrT = /* vertical profile of vertical diffusion of Temp ( m^2/s )*/
(PID.TID 0001.0001)    15 @  3.000000000000000E-05              /* K =  1: 15 */
(PID.TID 0001.0001)     ;
(PID.TID 0001.0001) diffKrNrS = /* vertical profile of vertical diffusion of Salt ( m^2/s )*/
(PID.TID 0001.0001)    15 @  3.000000000000000E-05              /* K =  1: 15 */
(PID.TID 0001.0001)     ;
(PID.TID 0001.0001) diffKrBL79surf = /* Surface diffusion for Bryan and Lewis 79 ( m^2/s ) */
(PID.TID 0001.0001)                 0.000000000000000E+00
(PID.TID 0001.0001)     ;
(PID.TID 0001.0001) diffKrBL79deep = /* Deep diffusion for Bryan and Lewis 1979 ( m^2/s ) */
(PID.TID 0001.0001)                 0.000000000000000E+00
(PID.TID 0001.0001)     ;
(PID.TID 0001.0001) diffKrBL79scl = /* Depth scale for Bryan and Lewis 1979 ( m ) */
(PID.TID 0001.0001)                 2.000000000000000E+02
(PID.TID 0001.0001)     ;
(PID.TID 0001.0001) diffKrBL79Ho = /* Turning depth for Bryan and Lewis 1979 ( m ) */
(PID.TID 0001.0001)                -2.000000000000000E+03
(PID.TID 0001.0001)     ;
(PID.TID 0001.0001) ivdc_kappa = /* Implicit Vertical Diffusivity for Convection ( m^2/s) */
(PID.TID 0001.0001)                 1.000000000000000E+01
(PID.TID 0001.0001)     ;
(PID.TID 0001.0001) hMixCriteria=  /* Criteria for mixed-layer diagnostic */
(PID.TID 0001.0001)                -8.000000000000000E-01
(PID.TID 0001.0001)     ;
(PID.TID 0001.0001) dRhoSmall =  /* Parameter for mixed-layer diagnostic */
(PID.TID 0001.0001)                 1.000000000000000E-06
(PID.TID 0001.0001)     ;
(PID.TID 0001.0001) hMixSmooth=  /* Smoothing parameter for mixed-layer diagnostic */
(PID.TID 0001.0001)                 0.000000000000000E+00
(PID.TID 0001.0001)     ;
(PID.TID 0001.0001) eosType =  /* Type of Equation of State */
(PID.TID 0001.0001)               'JMD95Z'
(PID.TID 0001.0001)     ;
(PID.TID 0001.0001) selectP_inEOS_Zc = /* select pressure to use in EOS (0,1,2,3) */
(PID.TID 0001.0001)                       0
(PID.TID 0001.0001)     0= -g*rhoConst*z ; 1= pRef (from tRef,sRef); 2= Hyd P ; 3= Hyd+NH P
(PID.TID 0001.0001)     ;
(PID.TID 0001.0001) HeatCapacity_Cp =  /* Specific heat capacity ( J/kg/K ) */
(PID.TID 0001.0001)                 3.994000000000000E+03
(PID.TID 0001.0001)     ;
(PID.TID 0001.0001) celsius2K = /* 0 degree Celsius converted to Kelvin ( K ) */
(PID.TID 0001.0001)                 2.731500000000000E+02
(PID.TID 0001.0001)     ;
(PID.TID 0001.0001) rhoConst  = /* Reference density (Boussinesq)  ( kg/m^3 ) */
(PID.TID 0001.0001)                 1.035000000000000E+03
(PID.TID 0001.0001)     ;
(PID.TID 0001.0001) rhoFacC = /* normalized Reference density @ cell-Center (-) */
(PID.TID 0001.0001)    15 @  1.000000000000000E+00              /* K =  1: 15 */
(PID.TID 0001.0001)     ;
(PID.TID 0001.0001) rhoFacF = /* normalized Reference density @ W-Interface (-) */
(PID.TID 0001.0001)    16 @  1.000000000000000E+00              /* K =  1: 16 */
(PID.TID 0001.0001)     ;
(PID.TID 0001.0001) rhoConstFresh = /* Fresh-water reference density ( kg/m^3 ) */
(PID.TID 0001.0001)                 1.000000000000000E+03
(PID.TID 0001.0001)     ;
(PID.TID 0001.0001) gravity =   /* Gravitational acceleration ( m/s^2 ) */
(PID.TID 0001.0001)                 9.810000000000000E+00
(PID.TID 0001.0001)     ;
(PID.TID 0001.0001) gBaro =   /* Barotropic gravity ( m/s^2 ) */
(PID.TID 0001.0001)                 9.810000000000000E+00
(PID.TID 0001.0001)     ;
(PID.TID 0001.0001) gravFacC = /* gravity factor (vs surf.) @ cell-Center (-) */
(PID.TID 0001.0001)    15 @  1.000000000000000E+00              /* K =  1: 15 */
(PID.TID 0001.0001)     ;
(PID.TID 0001.0001) gravFacF = /* gravity factor (vs surf.) @ W-Interface (-) */
(PID.TID 0001.0001)    16 @  1.000000000000000E+00              /* K =  1: 16 */
(PID.TID 0001.0001)     ;
(PID.TID 0001.0001) rotationPeriod =   /* Rotation Period ( s ) */
(PID.TID 0001.0001)                 8.640000000000000E+04
(PID.TID 0001.0001)     ;
(PID.TID 0001.0001) omega =   /* Angular velocity ( rad/s ) */
(PID.TID 0001.0001)                 7.272205216643040E-05
(PID.TID 0001.0001)     ;
(PID.TID 0001.0001) f0 =   /* Reference coriolis parameter ( 1/s ) */
(PID.TID 0001.0001)                 1.000000000000000E-04
(PID.TID 0001.0001)     ;
(PID.TID 0001.0001) beta =   /* Beta ( 1/(m.s) ) */
(PID.TID 0001.0001)                 9.999999999999999E-12
(PID.TID 0001.0001)     ;
(PID.TID 0001.0001) fPrime =   /* Second coriolis parameter ( 1/s ) */
(PID.TID 0001.0001)                 0.000000000000000E+00
(PID.TID 0001.0001)     ;
(PID.TID 0001.0001) rigidLid =   /* Rigid lid on/off flag */
(PID.TID 0001.0001)                   F
(PID.TID 0001.0001)     ;
(PID.TID 0001.0001) implicitFreeSurface =   /* Implicit free surface on/off flag */
(PID.TID 0001.0001)                   T
(PID.TID 0001.0001)     ;
(PID.TID 0001.0001) freeSurfFac =   /* Implicit free surface factor */
(PID.TID 0001.0001)                 1.000000000000000E+00
(PID.TID 0001.0001)     ;
(PID.TID 0001.0001) implicSurfPress =  /* Surface Pressure implicit factor (0-1)*/
(PID.TID 0001.0001)                 1.000000000000000E+00
(PID.TID 0001.0001)     ;
(PID.TID 0001.0001) implicDiv2Dflow =  /* Barot. Flow Div. implicit factor (0-1)*/
(PID.TID 0001.0001)                 1.000000000000000E+00
(PID.TID 0001.0001)     ;
(PID.TID 0001.0001) uniformLin_PhiSurf = /* use uniform Bo_surf on/off flag*/
(PID.TID 0001.0001)                   T
(PID.TID 0001.0001)     ;
(PID.TID 0001.0001) uniformFreeSurfLev = /* free-surface level-index is uniform */
(PID.TID 0001.0001)                   T
(PID.TID 0001.0001)     ;
(PID.TID 0001.0001) hFacMin =   /* minimum partial cell factor (hFac) */
(PID.TID 0001.0001)                 1.000000000000000E-01
(PID.TID 0001.0001)     ;
(PID.TID 0001.0001) hFacMinDr = /* minimum partial cell thickness ( m) */
(PID.TID 0001.0001)                 2.000000000000000E+01
(PID.TID 0001.0001)     ;
(PID.TID 0001.0001) exactConserv =  /* Exact Volume Conservation on/off flag*/
(PID.TID 0001.0001)                   T
(PID.TID 0001.0001)     ;
(PID.TID 0001.0001) linFSConserveTr = /* Tracer correction for Lin Free Surface on/off flag*/
(PID.TID 0001.0001)                   F
(PID.TID 0001.0001)     ;
(PID.TID 0001.0001) nonlinFreeSurf = /* Non-linear Free Surf. options (-1,0,1,2,3)*/
(PID.TID 0001.0001)                       4
(PID.TID 0001.0001)      -1,0= Off ; 1,2,3= On, 2=+rescale gU,gV, 3=+update cg2d solv.
(PID.TID 0001.0001)     ;
(PID.TID 0001.0001) hFacInf =   /* lower threshold for hFac (nonlinFreeSurf only)*/
(PID.TID 0001.0001)                 2.000000000000000E-01
(PID.TID 0001.0001)     ;
(PID.TID 0001.0001) hFacSup =   /* upper threshold for hFac (nonlinFreeSurf only)*/
(PID.TID 0001.0001)                 2.000000000000000E+00
(PID.TID 0001.0001)     ;
(PID.TID 0001.0001) select_rStar = /* r* Vertical coord. options (=0 r coord.; >0 uses r*)*/
(PID.TID 0001.0001)                       2
(PID.TID 0001.0001)     ;
(PID.TID 0001.0001) useRealFreshWaterFlux = /* Real Fresh Water Flux on/off flag*/
(PID.TID 0001.0001)                   T
(PID.TID 0001.0001)     ;
(PID.TID 0001.0001) temp_EvPrRn = /* Temp. of Evap/Prec/R (UNSET=use local T)(oC)*/
(PID.TID 0001.0001)                 1.234567000000000E+05
(PID.TID 0001.0001)     ;
(PID.TID 0001.0001) salt_EvPrRn = /* Salin. of Evap/Prec/R (UNSET=use local S)(psu)*/
(PID.TID 0001.0001)                 0.000000000000000E+00
(PID.TID 0001.0001)     ;
(PID.TID 0001.0001) selectAddFluid = /* option for mass source/sink of fluid (=0: off) */
(PID.TID 0001.0001)                       0
(PID.TID 0001.0001)     ;
(PID.TID 0001.0001) temp_addMass = /* Temp. of addMass array (UNSET=use local T)(oC)*/
(PID.TID 0001.0001)                 1.234567000000000E+05
(PID.TID 0001.0001)     ;
(PID.TID 0001.0001) salt_addMass = /* Salin. of addMass array (UNSET=use local S)(psu)*/
(PID.TID 0001.0001)                 0.000000000000000E+00
(PID.TID 0001.0001)     ;
(PID.TID 0001.0001) use3Dsolver = /* use 3-D pressure solver on/off flag */
(PID.TID 0001.0001)                   F
(PID.TID 0001.0001)     ;
(PID.TID 0001.0001) nonHydrostatic =  /* Non-Hydrostatic on/off flag */
(PID.TID 0001.0001)                   F
(PID.TID 0001.0001)     ;
(PID.TID 0001.0001) nh_Am2 = /* Non-Hydrostatic terms scaling factor */
(PID.TID 0001.0001)                 1.000000000000000E+00
(PID.TID 0001.0001)     ;
(PID.TID 0001.0001) implicitNHPress = /* Non-Hyd Pressure implicit factor (0-1)*/
(PID.TID 0001.0001)                 1.000000000000000E+00
(PID.TID 0001.0001)     ;
(PID.TID 0001.0001) selectNHfreeSurf = /* Non-Hyd (free-)Surface option */
(PID.TID 0001.0001)                       0
(PID.TID 0001.0001)     ;
(PID.TID 0001.0001) quasiHydrostatic = /* Quasi-Hydrostatic on/off flag */
(PID.TID 0001.0001)                   F
(PID.TID 0001.0001)     ;
(PID.TID 0001.0001) calc_wVelocity = /* vertical velocity calculation on/off flag */
(PID.TID 0001.0001)                   T
(PID.TID 0001.0001)     ;
(PID.TID 0001.0001) momStepping =  /* Momentum equation on/off flag */
(PID.TID 0001.0001)                   T
(PID.TID 0001.0001)     ;
(PID.TID 0001.0001) vectorInvariantMomentum= /* Vector-Invariant Momentum on/off */
(PID.TID 0001.0001)                   T
(PID.TID 0001.0001)     ;
(PID.TID 0001.0001) momAdvection =  /* Momentum advection on/off flag */
(PID.TID 0001.0001)                   T
(PID.TID 0001.0001)     ;
(PID.TID 0001.0001) momViscosity =  /* Momentum viscosity on/off flag */
(PID.TID 0001.0001)                   T
(PID.TID 0001.0001)     ;
(PID.TID 0001.0001) momImplVertAdv= /* Momentum implicit vert. advection on/off*/
(PID.TID 0001.0001)                   F
(PID.TID 0001.0001)     ;
(PID.TID 0001.0001) implicitViscosity = /* Implicit viscosity on/off flag */
(PID.TID 0001.0001)                   F
(PID.TID 0001.0001)     ;
(PID.TID 0001.0001) implBottomFriction= /* Implicit bottom friction on/off flag */
(PID.TID 0001.0001)                   F
(PID.TID 0001.0001)     ;
(PID.TID 0001.0001) metricTerms =  /* metric-Terms on/off flag */
(PID.TID 0001.0001)                   F
(PID.TID 0001.0001)     ;
(PID.TID 0001.0001) useNHMTerms = /* Non-Hydrostatic Metric-Terms on/off */
(PID.TID 0001.0001)                   F
(PID.TID 0001.0001)     ;
(PID.TID 0001.0001) selectCoriMap = /* Coriolis Map options (0,1,2,3)*/
(PID.TID 0001.0001)                       2
(PID.TID 0001.0001)     0= f-Plane ; 1= Beta-Plane ; 2= Spherical ; 3= read from file
(PID.TID 0001.0001)     ;
(PID.TID 0001.0001) use3dCoriolis = /* 3-D Coriolis on/off flag */
(PID.TID 0001.0001)                   F
(PID.TID 0001.0001)     ;
(PID.TID 0001.0001) useCoriolis =  /* Coriolis on/off flag */
(PID.TID 0001.0001)                   T
(PID.TID 0001.0001)     ;
(PID.TID 0001.0001) useCDscheme =  /* CD scheme on/off flag */
(PID.TID 0001.0001)                   F
(PID.TID 0001.0001)     ;
(PID.TID 0001.0001) useEnergyConservingCoriolis= /* Flx-Form Coriolis scheme flag */
(PID.TID 0001.0001)                   F
(PID.TID 0001.0001)     ;
(PID.TID 0001.0001) useJamartWetPoints= /* Coriolis WetPoints method flag */
(PID.TID 0001.0001)                   F
(PID.TID 0001.0001)     ;
(PID.TID 0001.0001) useJamartMomAdv= /* V.I Non-linear terms Jamart flag */
(PID.TID 0001.0001)                   F
(PID.TID 0001.0001)     ;
(PID.TID 0001.0001) useAbsVorticity= /* V.I Works with f+zeta in Coriolis */
(PID.TID 0001.0001)                   F
(PID.TID 0001.0001)     ;
(PID.TID 0001.0001) selectVortScheme= /* V.I Scheme selector for Vorticity-Term */
(PID.TID 0001.0001)                       1
(PID.TID 0001.0001)    = 0 : enstrophy (Shallow-Water Eq.) conserving scheme by Sadourny, JAS 75
(PID.TID 0001.0001)    = 1 : same as 0 with modified hFac
(PID.TID 0001.0001)    = 2 : energy conserving scheme (used by Sadourny in JAS 75 paper)
(PID.TID 0001.0001)    = 3 : energy (general) and enstrophy (2D, nonDiv.) conserving scheme
(PID.TID 0001.0001)          from Sadourny (Burridge & Haseler, ECMWF Rep.4, 1977)
(PID.TID 0001.0001)     ;
(PID.TID 0001.0001) upwindVorticity= /* V.I Upwind bias vorticity flag */
(PID.TID 0001.0001)                   F
(PID.TID 0001.0001)     ;
(PID.TID 0001.0001) highOrderVorticity= /* V.I High order vort. advect. flag */
(PID.TID 0001.0001)                   F
(PID.TID 0001.0001)     ;
(PID.TID 0001.0001) upwindShear= /* V.I Upwind vertical Shear advection flag */
(PID.TID 0001.0001)                   F
(PID.TID 0001.0001)     ;
(PID.TID 0001.0001) selectKEscheme= /* V.I Kinetic Energy scheme selector */
(PID.TID 0001.0001)                       0
(PID.TID 0001.0001)     ;
(PID.TID 0001.0001) momForcing =  /* Momentum forcing on/off flag */
(PID.TID 0001.0001)                   T
(PID.TID 0001.0001)     ;
(PID.TID 0001.0001) momPressureForcing =  /* Momentum pressure term on/off flag */
(PID.TID 0001.0001)                   T
(PID.TID 0001.0001)     ;
(PID.TID 0001.0001) implicitIntGravWave= /* Implicit Internal Gravity Wave flag */
(PID.TID 0001.0001)                   F
(PID.TID 0001.0001)     ;
(PID.TID 0001.0001) staggerTimeStep =    /* Stagger time stepping on/off flag */
(PID.TID 0001.0001)                   T
(PID.TID 0001.0001)     ;
(PID.TID 0001.0001) doResetHFactors = /* reset thickness factors @ each time-step */
(PID.TID 0001.0001)                   F
(PID.TID 0001.0001)     ;
(PID.TID 0001.0001) multiDimAdvection =  /* enable/disable Multi-Dim Advection */
(PID.TID 0001.0001)                   T
(PID.TID 0001.0001)     ;
(PID.TID 0001.0001) useMultiDimAdvec =   /* Multi-Dim Advection is/is-not used */
(PID.TID 0001.0001)                   F
(PID.TID 0001.0001)     ;
(PID.TID 0001.0001) implicitDiffusion = /* Implicit Diffusion on/off flag */
(PID.TID 0001.0001)                   T
(PID.TID 0001.0001)     ;
(PID.TID 0001.0001) tempStepping =  /* Temperature equation on/off flag */
(PID.TID 0001.0001)                   T
(PID.TID 0001.0001)     ;
(PID.TID 0001.0001) tempAdvection = /* Temperature advection on/off flag */
(PID.TID 0001.0001)                   T
(PID.TID 0001.0001)     ;
(PID.TID 0001.0001) tempImplVertAdv = /* Temp. implicit vert. advection on/off */
(PID.TID 0001.0001)                   F
(PID.TID 0001.0001)     ;
(PID.TID 0001.0001) tempForcing  =  /* Temperature forcing on/off flag */
(PID.TID 0001.0001)                   T
(PID.TID 0001.0001)     ;
(PID.TID 0001.0001) balanceQnet  =  /* balance net heat-flux on/off flag */
(PID.TID 0001.0001)                   F
(PID.TID 0001.0001)     ;
(PID.TID 0001.0001) doThetaClimRelax = /* apply SST relaxation on/off flag */
(PID.TID 0001.0001)                   T
(PID.TID 0001.0001)     ;
(PID.TID 0001.0001) balanceThetaClimRelax= /* balance SST relaxation on/off flag */
(PID.TID 0001.0001)                   F
(PID.TID 0001.0001)     ;
(PID.TID 0001.0001) tempIsActiveTr = /* Temp. is a dynamically Active Tracer */
(PID.TID 0001.0001)                   T
(PID.TID 0001.0001)     ;
(PID.TID 0001.0001) saltStepping =  /* Salinity equation on/off flag */
(PID.TID 0001.0001)                   T
(PID.TID 0001.0001)     ;
(PID.TID 0001.0001) saltAdvection = /* Salinity advection on/off flag */
(PID.TID 0001.0001)                   T
(PID.TID 0001.0001)     ;
(PID.TID 0001.0001) saltImplVertAdv = /* Sali. implicit vert. advection on/off */
(PID.TID 0001.0001)                   F
(PID.TID 0001.0001)     ;
(PID.TID 0001.0001) saltForcing  =  /* Salinity forcing on/off flag */
(PID.TID 0001.0001)                   T
(PID.TID 0001.0001)     ;
(PID.TID 0001.0001) balanceEmPmR =  /* balance net fresh-water flux on/off flag */
(PID.TID 0001.0001)                   F
(PID.TID 0001.0001)     ;
(PID.TID 0001.0001) doSaltClimRelax = /* apply SSS relaxation on/off flag */
(PID.TID 0001.0001)                   T
(PID.TID 0001.0001)     ;
(PID.TID 0001.0001) balanceSaltClimRelax= /* balance SSS relaxation on/off flag */
(PID.TID 0001.0001)                   F
(PID.TID 0001.0001)     ;
(PID.TID 0001.0001) saltIsActiveTr = /* Salt  is a dynamically Active Tracer */
(PID.TID 0001.0001)                   T
(PID.TID 0001.0001)     ;
(PID.TID 0001.0001)  readBinaryPrec = /* Precision used for reading binary files */
(PID.TID 0001.0001)                      64
(PID.TID 0001.0001)     ;
(PID.TID 0001.0001) writeBinaryPrec = /* Precision used for writing binary files */
(PID.TID 0001.0001)                      32
(PID.TID 0001.0001)     ;
(PID.TID 0001.0001)  globalFiles = /* write "global" (=not per tile) files */
(PID.TID 0001.0001)                   F
(PID.TID 0001.0001)     ;
(PID.TID 0001.0001)  useSingleCpuIO = /* only master MPI process does I/O */
(PID.TID 0001.0001)                   T
(PID.TID 0001.0001)     ;
(PID.TID 0001.0001)  useSingleCpuInput = /* only master process reads input */
(PID.TID 0001.0001)                   T
(PID.TID 0001.0001)     ;
(PID.TID 0001.0001) /* debLev[*]  : level of debug & auxiliary message printing */
(PID.TID 0001.0001) debLevZero =  0 ; /* level of disabled aux. msg printing */
(PID.TID 0001.0001)    debLevA =  1 ; /* level of minimum  aux. msg printing */
(PID.TID 0001.0001)    debLevB =  2 ; /* level of low aux. print (report read-file opening)*/
(PID.TID 0001.0001)    debLevC =  3 ; /* level of moderate debug prt (most pkgs debug msg) */
(PID.TID 0001.0001)    debLevD =  4 ; /* level of enhanced debug prt (add DEBUG_STATS prt) */
(PID.TID 0001.0001)    debLevE =  5 ; /* level of extensive debug printing */
(PID.TID 0001.0001) debugLevel =  /* select debug printing level */
(PID.TID 0001.0001)                       2
(PID.TID 0001.0001)     ;
(PID.TID 0001.0001) //
(PID.TID 0001.0001) // Elliptic solver(s) paramters ( PARM02 in namelist )
(PID.TID 0001.0001) //
(PID.TID 0001.0001) cg2dMaxIters =   /* Upper limit on 2d con. grad iterations  */
(PID.TID 0001.0001)                     200
(PID.TID 0001.0001)     ;
(PID.TID 0001.0001) cg2dChkResFreq =   /* 2d con. grad convergence test frequency */
(PID.TID 0001.0001)                       1
(PID.TID 0001.0001)     ;
(PID.TID 0001.0001) cg2dUseMinResSol= /* use cg2d last-iter(=0) / min-resid.(=1) solution */
(PID.TID 0001.0001)                       0
(PID.TID 0001.0001)     ;
(PID.TID 0001.0001) cg2dTargetResidual =   /* 2d con. grad target residual  */
(PID.TID 0001.0001)                 1.000000000000000E-09
(PID.TID 0001.0001)     ;
(PID.TID 0001.0001) cg2dTargetResWunit =   /* CG2d target residual [W units] */
(PID.TID 0001.0001)                -1.000000000000000E+00
(PID.TID 0001.0001)     ;
(PID.TID 0001.0001) cg2dPreCondFreq =   /* Freq. for updating cg2d preconditioner */
(PID.TID 0001.0001)                       1
(PID.TID 0001.0001)     ;
(PID.TID 0001.0001) useSRCGSolver =  /* use single reduction CG solver(s) */
(PID.TID 0001.0001)                   F
(PID.TID 0001.0001)     ;
(PID.TID 0001.0001) printResidualFreq = /* Freq. for printing CG residual */
(PID.TID 0001.0001)                       0
(PID.TID 0001.0001)     ;
(PID.TID 0001.0001) //
(PID.TID 0001.0001) // Time stepping paramters ( PARM03 in namelist )
(PID.TID 0001.0001) //
(PID.TID 0001.0001) deltaTMom =   /* Momentum equation timestep ( s ) */
(PID.TID 0001.0001)                 1.200000000000000E+03
(PID.TID 0001.0001)     ;
(PID.TID 0001.0001) deltaTFreeSurf = /* FreeSurface equation timestep ( s ) */
(PID.TID 0001.0001)                 8.640000000000000E+04
(PID.TID 0001.0001)     ;
(PID.TID 0001.0001) dTtracerLev =  /* Tracer equation timestep ( s ) */
(PID.TID 0001.0001)    15 @  8.640000000000000E+04              /* K =  1: 15 */
(PID.TID 0001.0001)     ;
(PID.TID 0001.0001) deltaTClock  =   /* Model clock timestep ( s ) */
(PID.TID 0001.0001)                 8.640000000000000E+04
(PID.TID 0001.0001)     ;
(PID.TID 0001.0001) cAdjFreq =   /* Convective adjustment interval ( s ) */
(PID.TID 0001.0001)                 0.000000000000000E+00
(PID.TID 0001.0001)     ;
(PID.TID 0001.0001) momForcingOutAB = /* =1: take Momentum Forcing out of Adams-Bash. stepping */
(PID.TID 0001.0001)                       0
(PID.TID 0001.0001)     ;
(PID.TID 0001.0001) tracForcingOutAB = /* =1: take T,S,pTr Forcing out of Adams-Bash. stepping */
(PID.TID 0001.0001)                       1
(PID.TID 0001.0001)     ;
(PID.TID 0001.0001) momDissip_In_AB = /* put Dissipation Tendency in Adams-Bash. stepping */
(PID.TID 0001.0001)                   T
(PID.TID 0001.0001)     ;
(PID.TID 0001.0001) doAB_onGtGs = /* apply AB on Tendencies (rather than on T,S)*/
(PID.TID 0001.0001)                   T
(PID.TID 0001.0001)     ;
(PID.TID 0001.0001) abEps =   /* Adams-Bashforth-2 stabilizing weight */
(PID.TID 0001.0001)                 1.000000000000000E-01
(PID.TID 0001.0001)     ;
(PID.TID 0001.0001) applyExchUV_early = /* Apply EXCH to U,V earlier in time-step */
(PID.TID 0001.0001)                   F
(PID.TID 0001.0001)     ;
(PID.TID 0001.0001) pickupStrictlyMatch= /* stop if pickup do not strictly match */
(PID.TID 0001.0001)                   T
(PID.TID 0001.0001)     ;
(PID.TID 0001.0001) nIter0   =   /* Run starting timestep number */
(PID.TID 0001.0001)                   72000
(PID.TID 0001.0001)     ;
(PID.TID 0001.0001) nTimeSteps = /* Number of timesteps */
(PID.TID 0001.0001)                      20
(PID.TID 0001.0001)     ;
(PID.TID 0001.0001) nEndIter =   /* Run ending timestep number */
(PID.TID 0001.0001)                   72020
(PID.TID 0001.0001)     ;
(PID.TID 0001.0001) baseTime =   /* Model base time ( s ) */
(PID.TID 0001.0001)                 0.000000000000000E+00
(PID.TID 0001.0001)     ;
(PID.TID 0001.0001) startTime =  /* Run start time ( s ) */
(PID.TID 0001.0001)                 6.220800000000000E+09
(PID.TID 0001.0001)     ;
(PID.TID 0001.0001) endTime  =   /* Integration ending time ( s ) */
(PID.TID 0001.0001)                 6.222528000000000E+09
(PID.TID 0001.0001)     ;
(PID.TID 0001.0001) pChkPtFreq = /* Permanent restart/pickup file interval ( s ) */
(PID.TID 0001.0001)                 1.728000000000000E+06
(PID.TID 0001.0001)     ;
(PID.TID 0001.0001) chkPtFreq  = /* Rolling restart/pickup file interval ( s ) */
(PID.TID 0001.0001)                 0.000000000000000E+00
(PID.TID 0001.0001)     ;
(PID.TID 0001.0001) pickup_write_mdsio =   /* Model IO flag. */
(PID.TID 0001.0001)                   T
(PID.TID 0001.0001)     ;
(PID.TID 0001.0001) pickup_read_mdsio =   /* Model IO flag. */
(PID.TID 0001.0001)                   T
(PID.TID 0001.0001)     ;
(PID.TID 0001.0001) pickup_write_immed =   /* Model IO flag. */
(PID.TID 0001.0001)                   F
(PID.TID 0001.0001)     ;
(PID.TID 0001.0001) writePickupAtEnd =   /* Model IO flag. */
(PID.TID 0001.0001)                   T
(PID.TID 0001.0001)     ;
(PID.TID 0001.0001) dumpFreq =   /* Model state write out interval ( s ). */
(PID.TID 0001.0001)                 6.220800000000000E+08
(PID.TID 0001.0001)     ;
(PID.TID 0001.0001) dumpInitAndLast= /* write out Initial & Last iter. model state */
(PID.TID 0001.0001)                   T
(PID.TID 0001.0001)     ;
(PID.TID 0001.0001) snapshot_mdsio =   /* Model IO flag. */
(PID.TID 0001.0001)                   T
(PID.TID 0001.0001)     ;
(PID.TID 0001.0001) monitorFreq =   /* Monitor output interval ( s ). */
(PID.TID 0001.0001)                 1.000000000000000E+00
(PID.TID 0001.0001)     ;
(PID.TID 0001.0001) monitorSelect = /* select group of variables to monitor */
(PID.TID 0001.0001)                       3
(PID.TID 0001.0001)     ;
(PID.TID 0001.0001) monitor_stdio =   /* Model IO flag. */
(PID.TID 0001.0001)                   T
(PID.TID 0001.0001)     ;
(PID.TID 0001.0001) externForcingPeriod =   /* forcing period (s) */
(PID.TID 0001.0001)                 2.592000000000000E+06
(PID.TID 0001.0001)     ;
(PID.TID 0001.0001) externForcingCycle =   /* period of the cyle (s). */
(PID.TID 0001.0001)                 3.110400000000000E+07
(PID.TID 0001.0001)     ;
(PID.TID 0001.0001) tauThetaClimRelax =   /* relaxation time scale (s) */
(PID.TID 0001.0001)                 5.184000000000000E+06
(PID.TID 0001.0001)     ;
(PID.TID 0001.0001) tauSaltClimRelax =   /* relaxation time scale (s) */
(PID.TID 0001.0001)                 6.220800000000000E+07
(PID.TID 0001.0001)     ;
(PID.TID 0001.0001) latBandClimRelax =   /* max. Lat. where relaxation */
(PID.TID 0001.0001)                 1.800000000000000E+02
(PID.TID 0001.0001)     ;
(PID.TID 0001.0001) //
(PID.TID 0001.0001) // Gridding paramters ( PARM04 in namelist )
(PID.TID 0001.0001) //
(PID.TID 0001.0001) usingCartesianGrid = /* Cartesian coordinates flag ( True/False ) */
(PID.TID 0001.0001)                   F
(PID.TID 0001.0001)     ;
(PID.TID 0001.0001) usingCylindricalGrid = /* Cylindrical coordinates flag ( True/False ) */
(PID.TID 0001.0001)                   F
(PID.TID 0001.0001)     ;
(PID.TID 0001.0001) usingSphericalPolarGrid = /* Spherical coordinates flag ( True/False ) */
(PID.TID 0001.0001)                   F
(PID.TID 0001.0001)     ;
(PID.TID 0001.0001) usingCurvilinearGrid = /* Curvilinear coordinates flag ( True/False ) */
(PID.TID 0001.0001)                   T
(PID.TID 0001.0001)     ;
(PID.TID 0001.0001) selectSigmaCoord = /* Hybrid-Sigma Vert. Coordinate option */
(PID.TID 0001.0001)                       0
(PID.TID 0001.0001)     ;
(PID.TID 0001.0001) rSigmaBnd = /* r/sigma transition ( units of r ==  m ) */
(PID.TID 0001.0001)                 1.234567000000000E+05
(PID.TID 0001.0001)     ;
(PID.TID 0001.0001) rkSign =   /* index orientation relative to vertical coordinate */
(PID.TID 0001.0001)                -1.000000000000000E+00
(PID.TID 0001.0001)     ;
(PID.TID 0001.0001) gravitySign = /* gravity orientation relative to vertical coordinate */
(PID.TID 0001.0001)                -1.000000000000000E+00
(PID.TID 0001.0001)     ;
(PID.TID 0001.0001) seaLev_Z =  /* reference height of sea-level [m] */
(PID.TID 0001.0001)                 0.000000000000000E+00
(PID.TID 0001.0001)     ;
(PID.TID 0001.0001) top_Pres =  /* reference pressure at the top [Pa] */
(PID.TID 0001.0001)                 0.000000000000000E+00
(PID.TID 0001.0001)     ;
(PID.TID 0001.0001) mass2rUnit = /* convert mass per unit area [kg/m2] to r-units [m] */
(PID.TID 0001.0001)                 9.661835748792270E-04
(PID.TID 0001.0001)     ;
(PID.TID 0001.0001) rUnit2mass = /* convert r-units [m] to mass per unit area [kg/m2] */
(PID.TID 0001.0001)                 1.035000000000000E+03
(PID.TID 0001.0001)     ;
(PID.TID 0001.0001) drC =   /* C spacing ( units of r ) */
(PID.TID 0001.0001)                 2.500000000000000E+01,      /* K =  1 */
(PID.TID 0001.0001)                 6.000000000000000E+01,      /* K =  2 */
(PID.TID 0001.0001)                 8.500000000000000E+01,      /* K =  3 */
(PID.TID 0001.0001)                 1.200000000000000E+02,      /* K =  4 */
(PID.TID 0001.0001)                 1.650000000000000E+02,      /* K =  5 */
(PID.TID 0001.0001)                 2.150000000000000E+02,      /* K =  6 */
(PID.TID 0001.0001)                 2.650000000000000E+02,      /* K =  7 */
(PID.TID 0001.0001)                 3.150000000000000E+02,      /* K =  8 */
(PID.TID 0001.0001)                 3.650000000000000E+02,      /* K =  9 */
(PID.TID 0001.0001)                 4.150000000000000E+02,      /* K = 10 */
(PID.TID 0001.0001)                 4.650000000000000E+02,      /* K = 11 */
(PID.TID 0001.0001)                 5.150000000000000E+02,      /* K = 12 */
(PID.TID 0001.0001)                 5.650000000000000E+02,      /* K = 13 */
(PID.TID 0001.0001)                 6.150000000000000E+02,      /* K = 14 */
(PID.TID 0001.0001)                 6.650000000000000E+02,      /* K = 15 */
(PID.TID 0001.0001)                 3.450000000000000E+02       /* K = 16 */
(PID.TID 0001.0001)     ;
(PID.TID 0001.0001) drF =   /* W spacing ( units of r ) */
(PID.TID 0001.0001)                 5.000000000000000E+01,      /* K =  1 */
(PID.TID 0001.0001)                 7.000000000000000E+01,      /* K =  2 */
(PID.TID 0001.0001)                 1.000000000000000E+02,      /* K =  3 */
(PID.TID 0001.0001)                 1.400000000000000E+02,      /* K =  4 */
(PID.TID 0001.0001)                 1.900000000000000E+02,      /* K =  5 */
(PID.TID 0001.0001)                 2.400000000000000E+02,      /* K =  6 */
(PID.TID 0001.0001)                 2.900000000000000E+02,      /* K =  7 */
(PID.TID 0001.0001)                 3.400000000000000E+02,      /* K =  8 */
(PID.TID 0001.0001)                 3.900000000000000E+02,      /* K =  9 */
(PID.TID 0001.0001)                 4.400000000000000E+02,      /* K = 10 */
(PID.TID 0001.0001)                 4.900000000000000E+02,      /* K = 11 */
(PID.TID 0001.0001)                 5.400000000000000E+02,      /* K = 12 */
(PID.TID 0001.0001)                 5.900000000000000E+02,      /* K = 13 */
(PID.TID 0001.0001)                 6.400000000000000E+02,      /* K = 14 */
(PID.TID 0001.0001)                 6.900000000000000E+02       /* K = 15 */
(PID.TID 0001.0001)     ;
(PID.TID 0001.0001) radius_fromHorizGrid = /* sphere Radius of input horiz. grid */
(PID.TID 0001.0001)                 6.370000000000000E+06
(PID.TID 0001.0001)     ;
(PID.TID 0001.0001) rSphere =  /* Radius ( ignored - cartesian, m - spherical ) */
(PID.TID 0001.0001)                 6.370000000000000E+06
(PID.TID 0001.0001)     ;
(PID.TID 0001.0001) deepAtmosphere = /* Deep/Shallow Atmosphere flag (True/False) */
(PID.TID 0001.0001)                   F
(PID.TID 0001.0001)     ;
(PID.TID 0001.0001) xC =  /* xC(:,1,:,1) : P-point X coord ( deg. or m if cartesian) */
(PID.TID 0001.0001)                 4.560478005239464E+01,      /* I =  1 */
(PID.TID 0001.0001)                 4.704358727724117E+01,      /* I =  2 */
(PID.TID 0001.0001)                 4.877944446611043E+01,      /* I =  3 */
(PID.TID 0001.0001)                 5.076553711512697E+01,      /* I =  4 */
(PID.TID 0001.0001)                 5.297414841317801E+01,      /* I =  5 */
(PID.TID 0001.0001)                 5.538820632905850E+01,      /* I =  6 */
(PID.TID 0001.0001)                 5.799565430958209E+01,      /* I =  7 */
(PID.TID 0001.0001)                 6.078644034367325E+01,      /* I =  8 */
(PID.TID 0001.0001)                 6.375067776971711E+01,      /* I =  9 */
(PID.TID 0001.0001)                 6.687738749573657E+01,      /* I = 10 */
(PID.TID 0001.0001)                 7.015359282872943E+01,      /* I = 11 */
(PID.TID 0001.0001)                 7.356369199444866E+01,      /* I = 12 */
(PID.TID 0001.0001)                 7.708910193697932E+01,      /* I = 13 */
(PID.TID 0001.0001)                 8.070819219728060E+01,      /* I = 14 */
(PID.TID 0001.0001)                 8.439652466417766E+01,      /* I = 15 */
(PID.TID 0001.0001)                 8.812739148696656E+01,      /* I = 16 */
(PID.TID 0001.0001)                 9.187260851303344E+01,      /* I = 17 */
(PID.TID 0001.0001)                 9.560347533582234E+01,      /* I = 18 */
(PID.TID 0001.0001)                 9.929180780271940E+01,      /* I = 19 */
(PID.TID 0001.0001)                 1.029108980630207E+02,      /* I = 20 */
(PID.TID 0001.0001)                 1.064363080055513E+02,      /* I = 21 */
(PID.TID 0001.0001)                 1.098464071712706E+02,      /* I = 22 */
(PID.TID 0001.0001)                 1.131226125042634E+02,      /* I = 23 */
(PID.TID 0001.0001)                 1.162493222302829E+02,      /* I = 24 */
(PID.TID 0001.0001)                 1.192135596563268E+02,      /* I = 25 */
(PID.TID 0001.0001)                 1.220043456904179E+02,      /* I = 26 */
(PID.TID 0001.0001)                 1.246117936709415E+02,      /* I = 27 */
(PID.TID 0001.0001)                 1.270258515868220E+02,      /* I = 28 */
(PID.TID 0001.0001)                 1.292344628848730E+02,      /* I = 29 */
(PID.TID 0001.0001)                 1.312205555338896E+02,      /* I = 30 */
(PID.TID 0001.0001)                 1.329564127227588E+02,      /* I = 31 */
(PID.TID 0001.0001)                 1.343952199476053E+02       /* I = 32 */
(PID.TID 0001.0001)     ;
(PID.TID 0001.0001) yC =  /* yC(1,:,1,:) : P-point Y coord ( deg. or m if cartesian) */
(PID.TID 0001.0001)                -3.497677942598243E+01,      /* J =  1 */
(PID.TID 0001.0001)                -3.374005967394886E+01,      /* J =  2 */
(PID.TID 0001.0001)                -3.220655175667454E+01,      /* J =  3 */
(PID.TID 0001.0001)                -3.045756348838641E+01,      /* J =  4 */
(PID.TID 0001.0001)                -2.853728129852918E+01,      /* J =  5 */
(PID.TID 0001.0001)                -2.647426640173173E+01,      /* J =  6 */
(PID.TID 0001.0001)                -2.428936657094636E+01,      /* J =  7 */
(PID.TID 0001.0001)                -2.199915808312262E+01,      /* J =  8 */
(PID.TID 0001.0001)                -1.961768597440146E+01,      /* J =  9 */
(PID.TID 0001.0001)                -1.715743888281371E+01,      /* J = 10 */
(PID.TID 0001.0001)                -1.462993396899330E+01,      /* J = 11 */
(PID.TID 0001.0001)                -1.204608340464756E+01,      /* J = 12 */
(PID.TID 0001.0001)                -9.416429130284818E+00,      /* J = 13 */
(PID.TID 0001.0001)                -6.751293662992216E+00,      /* J = 14 */
(PID.TID 0001.0001)                -4.060875511835959E+00,      /* J = 15 */
(PID.TID 0001.0001)                -1.355307764409121E+00,      /* J = 16 */
(PID.TID 0001.0001)                 1.355307764409121E+00,      /* J = 17 */
(PID.TID 0001.0001)                 4.060875511835959E+00,      /* J = 18 */
(PID.TID 0001.0001)                 6.751293662992216E+00,      /* J = 19 */
(PID.TID 0001.0001)                 9.416429130284818E+00,      /* J = 20 */
(PID.TID 0001.0001)                 1.204608340464756E+01,      /* J = 21 */
(PID.TID 0001.0001)                 1.462993396899330E+01,      /* J = 22 */
(PID.TID 0001.0001)                 1.715743888281371E+01,      /* J = 23 */
(PID.TID 0001.0001)                 1.961768597440146E+01,      /* J = 24 */
(PID.TID 0001.0001)                 2.199915808312262E+01,      /* J = 25 */
(PID.TID 0001.0001)                 2.428936657094636E+01,      /* J = 26 */
(PID.TID 0001.0001)                 2.647426640173173E+01,      /* J = 27 */
(PID.TID 0001.0001)                 2.853728129852918E+01,      /* J = 28 */
(PID.TID 0001.0001)                 3.045756348838641E+01,      /* J = 29 */
(PID.TID 0001.0001)                 3.220655175667454E+01,      /* J = 30 */
(PID.TID 0001.0001)                 3.374005967394886E+01,      /* J = 31 */
(PID.TID 0001.0001)                 3.497677942598243E+01       /* J = 32 */
(PID.TID 0001.0001)     ;
(PID.TID 0001.0001) rcoord = /* P-point R coordinate (  units of r ) */
(PID.TID 0001.0001)                -2.500000000000000E+01,      /* K =  1 */
(PID.TID 0001.0001)                -8.500000000000000E+01,      /* K =  2 */
(PID.TID 0001.0001)                -1.700000000000000E+02,      /* K =  3 */
(PID.TID 0001.0001)                -2.900000000000000E+02,      /* K =  4 */
(PID.TID 0001.0001)                -4.550000000000000E+02,      /* K =  5 */
(PID.TID 0001.0001)                -6.700000000000000E+02,      /* K =  6 */
(PID.TID 0001.0001)                -9.350000000000000E+02,      /* K =  7 */
(PID.TID 0001.0001)                -1.250000000000000E+03,      /* K =  8 */
(PID.TID 0001.0001)                -1.615000000000000E+03,      /* K =  9 */
(PID.TID 0001.0001)                -2.030000000000000E+03,      /* K = 10 */
(PID.TID 0001.0001)                -2.495000000000000E+03,      /* K = 11 */
(PID.TID 0001.0001)                -3.010000000000000E+03,      /* K = 12 */
(PID.TID 0001.0001)                -3.575000000000000E+03,      /* K = 13 */
(PID.TID 0001.0001)                -4.190000000000000E+03,      /* K = 14 */
(PID.TID 0001.0001)                -4.855000000000000E+03       /* K = 15 */
(PID.TID 0001.0001)     ;
(PID.TID 0001.0001) rF =   /* W-Interf. R coordinate (  units of r ) */
(PID.TID 0001.0001)                 0.000000000000000E+00,      /* K =  1 */
(PID.TID 0001.0001)                -5.000000000000000E+01,      /* K =  2 */
(PID.TID 0001.0001)                -1.200000000000000E+02,      /* K =  3 */
(PID.TID 0001.0001)                -2.200000000000000E+02,      /* K =  4 */
(PID.TID 0001.0001)                -3.600000000000000E+02,      /* K =  5 */
(PID.TID 0001.0001)                -5.500000000000000E+02,      /* K =  6 */
(PID.TID 0001.0001)                -7.900000000000000E+02,      /* K =  7 */
(PID.TID 0001.0001)                -1.080000000000000E+03,      /* K =  8 */
(PID.TID 0001.0001)                -1.420000000000000E+03,      /* K =  9 */
(PID.TID 0001.0001)                -1.810000000000000E+03,      /* K = 10 */
(PID.TID 0001.0001)                -2.250000000000000E+03,      /* K = 11 */
(PID.TID 0001.0001)                -2.740000000000000E+03,      /* K = 12 */
(PID.TID 0001.0001)                -3.280000000000000E+03,      /* K = 13 */
(PID.TID 0001.0001)                -3.870000000000000E+03,      /* K = 14 */
(PID.TID 0001.0001)                -4.510000000000000E+03,      /* K = 15 */
(PID.TID 0001.0001)                -5.200000000000000E+03       /* K = 16 */
(PID.TID 0001.0001)     ;
(PID.TID 0001.0001) deepFacC = /* deep-model grid factor @ cell-Center (-) */
(PID.TID 0001.0001)    15 @  1.000000000000000E+00              /* K =  1: 15 */
(PID.TID 0001.0001)     ;
(PID.TID 0001.0001) deepFacF = /* deep-model grid factor @ W-Interface (-) */
(PID.TID 0001.0001)    16 @  1.000000000000000E+00              /* K =  1: 16 */
(PID.TID 0001.0001)     ;
(PID.TID 0001.0001) rVel2wUnit = /* convert units: rVel -> wSpeed (=1 if z-coord)*/
(PID.TID 0001.0001)    16 @  1.000000000000000E+00              /* K =  1: 16 */
(PID.TID 0001.0001)     ;
(PID.TID 0001.0001) wUnit2rVel = /* convert units: wSpeed -> rVel (=1 if z-coord)*/
(PID.TID 0001.0001)    16 @  1.000000000000000E+00              /* K =  1: 16 */
(PID.TID 0001.0001)     ;
(PID.TID 0001.0001) dBdrRef = /* Vertical grad. of reference buoyancy [(m/s/r)^2] */
(PID.TID 0001.0001)    15 @  0.000000000000000E+00              /* K =  1: 15 */
(PID.TID 0001.0001)     ;
(PID.TID 0001.0001) rotateGrid = /* use rotated grid ( True/False ) */
(PID.TID 0001.0001)                   F
(PID.TID 0001.0001)     ;
(PID.TID 0001.0001) phiEuler = /* Euler angle, rotation about original z-coordinate [rad] */
(PID.TID 0001.0001)                 0.000000000000000E+00
(PID.TID 0001.0001)     ;
(PID.TID 0001.0001) thetaEuler = /* Euler angle, rotation about new x-coordinate [rad] */
(PID.TID 0001.0001)                 0.000000000000000E+00
(PID.TID 0001.0001)     ;
(PID.TID 0001.0001) psiEuler = /* Euler angle, rotation about new z-coordinate [rad] */
(PID.TID 0001.0001)                 0.000000000000000E+00
(PID.TID 0001.0001)     ;
(PID.TID 0001.0001) dxF =  /* dxF(:,1,:,1) ( units: m ) */
(PID.TID 0001.0001)                 1.202082051331828E+05,      /* I =  1 */
(PID.TID 0001.0001)                 1.563594089971120E+05,      /* I =  2 */
(PID.TID 0001.0001)                 1.835530058121492E+05,      /* I =  3 */
(PID.TID 0001.0001)                 2.045883481718707E+05,      /* I =  4 */
(PID.TID 0001.0001)                 2.218350349844185E+05,      /* I =  5 */
(PID.TID 0001.0001)                 2.364352994647058E+05,      /* I =  6 */
(PID.TID 0001.0001)                 2.490022710862746E+05,      /* I =  7 */
(PID.TID 0001.0001)                 2.598919724358304E+05,      /* I =  8 */
(PID.TID 0001.0001)                 2.693210245495156E+05,      /* I =  9 */
(PID.TID 0001.0001)                 2.774243179696503E+05,      /* I = 10 */
(PID.TID 0001.0001)                 2.842862532064524E+05,      /* I = 11 */
(PID.TID 0001.0001)                 2.899590699694043E+05,      /* I = 12 */
(PID.TID 0001.0001)                 2.944742915095688E+05,      /* I = 13 */
(PID.TID 0001.0001)                 2.978501920522794E+05,      /* I = 14 */
(PID.TID 0001.0001)                 3.000967749619962E+05,      /* I = 15 */
(PID.TID 0001.0001)     2 @  3.012190981969055E+05,             /* I = 16: 17 */
(PID.TID 0001.0001)                 3.000967749619962E+05,      /* I = 18 */
(PID.TID 0001.0001)                 2.978501920522794E+05,      /* I = 19 */
(PID.TID 0001.0001)                 2.944742915095688E+05,      /* I = 20 */
(PID.TID 0001.0001)                 2.899590699694043E+05,      /* I = 21 */
(PID.TID 0001.0001)                 2.842862532064524E+05,      /* I = 22 */
(PID.TID 0001.0001)                 2.774243179696503E+05,      /* I = 23 */
(PID.TID 0001.0001)                 2.693210245495156E+05,      /* I = 24 */
(PID.TID 0001.0001)                 2.598919724358304E+05,      /* I = 25 */
(PID.TID 0001.0001)                 2.490022710862746E+05,      /* I = 26 */
(PID.TID 0001.0001)                 2.364352994647058E+05,      /* I = 27 */
(PID.TID 0001.0001)                 2.218350349844185E+05,      /* I = 28 */
(PID.TID 0001.0001)                 2.045883481718707E+05,      /* I = 29 */
(PID.TID 0001.0001)                 1.835530058121492E+05,      /* I = 30 */
(PID.TID 0001.0001)                 1.563594089971120E+05,      /* I = 31 */
(PID.TID 0001.0001)                 1.202082051331828E+05       /* I = 32 */
(PID.TID 0001.0001)     ;
(PID.TID 0001.0001) dxF =  /* dxF(1,:,1,:) ( units: m ) */
(PID.TID 0001.0001)                 1.202082051331828E+05,      /* J =  1 */
(PID.TID 0001.0001)                 1.572908084538706E+05,      /* J =  2 */
(PID.TID 0001.0001)                 1.840412227747703E+05,      /* J =  3 */
(PID.TID 0001.0001)                 2.048868197919576E+05,      /* J =  4 */
(PID.TID 0001.0001)                 2.220405216043041E+05,      /* J =  5 */
(PID.TID 0001.0001)                 2.365892017348392E+05,      /* J =  6 */
(PID.TID 0001.0001)                 2.491250781852558E+05,      /* J =  7 */
(PID.TID 0001.0001)                 2.599949918261881E+05,      /* J =  8 */
(PID.TID 0001.0001)                 2.694110134598581E+05,      /* J =  9 */
(PID.TID 0001.0001)                 2.775055554645015E+05,      /* J = 10 */
(PID.TID 0001.0001)                 2.843615645344775E+05,      /* J = 11 */
(PID.TID 0001.0001)                 2.900303768613599E+05,      /* J = 12 */
(PID.TID 0001.0001)                 2.945429307892709E+05,      /* J = 13 */
(PID.TID 0001.0001)                 2.979171143158405E+05,      /* J = 14 */
(PID.TID 0001.0001)                 3.001626787528886E+05,      /* J = 15 */
(PID.TID 0001.0001)     2 @  3.012844832048790E+05,             /* J = 16: 17 */
(PID.TID 0001.0001)                 3.001626787528886E+05,      /* J = 18 */
(PID.TID 0001.0001)                 2.979171143158405E+05,      /* J = 19 */
(PID.TID 0001.0001)                 2.945429307892709E+05,      /* J = 20 */
(PID.TID 0001.0001)                 2.900303768613599E+05,      /* J = 21 */
(PID.TID 0001.0001)                 2.843615645344775E+05,      /* J = 22 */
(PID.TID 0001.0001)                 2.775055554645015E+05,      /* J = 23 */
(PID.TID 0001.0001)                 2.694110134598581E+05,      /* J = 24 */
(PID.TID 0001.0001)                 2.599949918261881E+05,      /* J = 25 */
(PID.TID 0001.0001)                 2.491250781852558E+05,      /* J = 26 */
(PID.TID 0001.0001)                 2.365892017348392E+05,      /* J = 27 */
(PID.TID 0001.0001)                 2.220405216043041E+05,      /* J = 28 */
(PID.TID 0001.0001)                 2.048868197919576E+05,      /* J = 29 */
(PID.TID 0001.0001)                 1.840412227747703E+05,      /* J = 30 */
(PID.TID 0001.0001)                 1.572908084538706E+05,      /* J = 31 */
(PID.TID 0001.0001)                 1.202082051331828E+05       /* J = 32 */
(PID.TID 0001.0001)     ;
(PID.TID 0001.0001) dyF =  /* dyF(:,1,:,1) ( units: m ) */
(PID.TID 0001.0001)                 1.202082051331828E+05,      /* I =  1 */
(PID.TID 0001.0001)                 1.572908084538706E+05,      /* I =  2 */
(PID.TID 0001.0001)                 1.840412227747703E+05,      /* I =  3 */
(PID.TID 0001.0001)                 2.048868197919576E+05,      /* I =  4 */
(PID.TID 0001.0001)                 2.220405216043041E+05,      /* I =  5 */
(PID.TID 0001.0001)                 2.365892017348392E+05,      /* I =  6 */
(PID.TID 0001.0001)                 2.491250781852558E+05,      /* I =  7 */
(PID.TID 0001.0001)                 2.599949918261881E+05,      /* I =  8 */
(PID.TID 0001.0001)                 2.694110134598581E+05,      /* I =  9 */
(PID.TID 0001.0001)                 2.775055554645015E+05,      /* I = 10 */
(PID.TID 0001.0001)                 2.843615645344775E+05,      /* I = 11 */
(PID.TID 0001.0001)                 2.900303768613599E+05,      /* I = 12 */
(PID.TID 0001.0001)                 2.945429307892709E+05,      /* I = 13 */
(PID.TID 0001.0001)                 2.979171143158405E+05,      /* I = 14 */
(PID.TID 0001.0001)                 3.001626787528886E+05,      /* I = 15 */
(PID.TID 0001.0001)     2 @  3.012844832048790E+05,             /* I = 16: 17 */
(PID.TID 0001.0001)                 3.001626787528886E+05,      /* I = 18 */
(PID.TID 0001.0001)                 2.979171143158405E+05,      /* I = 19 */
(PID.TID 0001.0001)                 2.945429307892709E+05,      /* I = 20 */
(PID.TID 0001.0001)                 2.900303768613599E+05,      /* I = 21 */
(PID.TID 0001.0001)                 2.843615645344775E+05,      /* I = 22 */
(PID.TID 0001.0001)                 2.775055554645015E+05,      /* I = 23 */
(PID.TID 0001.0001)                 2.694110134598581E+05,      /* I = 24 */
(PID.TID 0001.0001)                 2.599949918261881E+05,      /* I = 25 */
(PID.TID 0001.0001)                 2.491250781852558E+05,      /* I = 26 */
(PID.TID 0001.0001)                 2.365892017348392E+05,      /* I = 27 */
(PID.TID 0001.0001)                 2.220405216043041E+05,      /* I = 28 */
(PID.TID 0001.0001)                 2.048868197919576E+05,      /* I = 29 */
(PID.TID 0001.0001)                 1.840412227747703E+05,      /* I = 30 */
(PID.TID 0001.0001)                 1.572908084538706E+05,      /* I = 31 */
(PID.TID 0001.0001)                 1.202082051331828E+05       /* I = 32 */
(PID.TID 0001.0001)     ;
(PID.TID 0001.0001) dyF =  /* dyF(1,:,1,:) ( units: m ) */
(PID.TID 0001.0001)                 1.202082051331828E+05,      /* J =  1 */
(PID.TID 0001.0001)                 1.563594089971120E+05,      /* J =  2 */
(PID.TID 0001.0001)                 1.835530058121492E+05,      /* J =  3 */
(PID.TID 0001.0001)                 2.045883481718707E+05,      /* J =  4 */
(PID.TID 0001.0001)                 2.218350349844185E+05,      /* J =  5 */
(PID.TID 0001.0001)                 2.364352994647058E+05,      /* J =  6 */
(PID.TID 0001.0001)                 2.490022710862746E+05,      /* J =  7 */
(PID.TID 0001.0001)                 2.598919724358304E+05,      /* J =  8 */
(PID.TID 0001.0001)                 2.693210245495156E+05,      /* J =  9 */
(PID.TID 0001.0001)                 2.774243179696503E+05,      /* J = 10 */
(PID.TID 0001.0001)                 2.842862532064524E+05,      /* J = 11 */
(PID.TID 0001.0001)                 2.899590699694043E+05,      /* J = 12 */
(PID.TID 0001.0001)                 2.944742915095688E+05,      /* J = 13 */
(PID.TID 0001.0001)                 2.978501920522794E+05,      /* J = 14 */
(PID.TID 0001.0001)                 3.000967749619962E+05,      /* J = 15 */
(PID.TID 0001.0001)     2 @  3.012190981969055E+05,             /* J = 16: 17 */
(PID.TID 0001.0001)                 3.000967749619962E+05,      /* J = 18 */
(PID.TID 0001.0001)                 2.978501920522794E+05,      /* J = 19 */
(PID.TID 0001.0001)                 2.944742915095688E+05,      /* J = 20 */
(PID.TID 0001.0001)                 2.899590699694043E+05,      /* J = 21 */
(PID.TID 0001.0001)                 2.842862532064524E+05,      /* J = 22 */
(PID.TID 0001.0001)                 2.774243179696503E+05,      /* J = 23 */
(PID.TID 0001.0001)                 2.693210245495156E+05,      /* J = 24 */
(PID.TID 0001.0001)                 2.598919724358304E+05,      /* J = 25 */
(PID.TID 0001.0001)                 2.490022710862746E+05,      /* J = 26 */
(PID.TID 0001.0001)                 2.364352994647058E+05,      /* J = 27 */
(PID.TID 0001.0001)                 2.218350349844185E+05,      /* J = 28 */
(PID.TID 0001.0001)                 2.045883481718707E+05,      /* J = 29 */
(PID.TID 0001.0001)                 1.835530058121492E+05,      /* J = 30 */
(PID.TID 0001.0001)                 1.563594089971120E+05,      /* J = 31 */
(PID.TID 0001.0001)                 1.202082051331828E+05       /* J = 32 */
(PID.TID 0001.0001)     ;
(PID.TID 0001.0001) dxG =  /* dxG(:,1,:,1) ( units: m ) */
(PID.TID 0001.0001)                 1.009837800879055E+05,      /* I =  1 */
(PID.TID 0001.0001)                 1.534505834330338E+05,      /* I =  2 */
(PID.TID 0001.0001)                 1.823321598773926E+05,      /* I =  3 */
(PID.TID 0001.0001)                 2.038999045536999E+05,      /* I =  4 */
(PID.TID 0001.0001)                 2.213884732245467E+05,      /* I =  5 */
(PID.TID 0001.0001)                 2.361211699596122E+05,      /* I =  6 */
(PID.TID 0001.0001)                 2.487693460283865E+05,      /* I =  7 */
(PID.TID 0001.0001)                 2.597126963772147E+05,      /* I =  8 */
(PID.TID 0001.0001)                 2.691790288994575E+05,      /* I =  9 */
(PID.TID 0001.0001)                 2.773091043277394E+05,      /* I = 10 */
(PID.TID 0001.0001)                 2.841906470085516E+05,      /* I = 11 */
(PID.TID 0001.0001)                 2.898778860929753E+05,      /* I = 12 */
(PID.TID 0001.0001)                 2.944035815526416E+05,      /* I = 13 */
(PID.TID 0001.0001)                 2.977867909042096E+05,      /* I = 14 */
(PID.TID 0001.0001)                 3.000380090330854E+05,      /* I = 15 */
(PID.TID 0001.0001)     2 @  3.011625828699101E+05,             /* I = 16: 17 */
(PID.TID 0001.0001)                 3.000380090330854E+05,      /* I = 18 */
(PID.TID 0001.0001)                 2.977867909042096E+05,      /* I = 19 */
(PID.TID 0001.0001)                 2.944035815526416E+05,      /* I = 20 */
(PID.TID 0001.0001)                 2.898778860929753E+05,      /* I = 21 */
(PID.TID 0001.0001)                 2.841906470085516E+05,      /* I = 22 */
(PID.TID 0001.0001)                 2.773091043277394E+05,      /* I = 23 */
(PID.TID 0001.0001)                 2.691790288994575E+05,      /* I = 24 */
(PID.TID 0001.0001)                 2.597126963772147E+05,      /* I = 25 */
(PID.TID 0001.0001)                 2.487693460283865E+05,      /* I = 26 */
(PID.TID 0001.0001)                 2.361211699596122E+05,      /* I = 27 */
[...]
 EXTERNAL_FIELDS_LOAD,     72053 : iP,iLd,i0,i1=    2    3    2    3 ; Wght=  0.7333333333  0.2666666667
 cg2d: Sum(rhs),rhsMax =  -2.30215846386272E-12  4.23522215572123E+00
(PID.TID 0001.0001)      cg2d_init_res =   3.09828948574990E-02
(PID.TID 0001.0001)      cg2d_iters(min,last) =      -1      84
(PID.TID 0001.0001)      cg2d_last_res =   8.97054074126008E-10
 DRIVER_GET_EXPORT_STATE_3D:MASK : Associated & shape =          32          32          15
 EXTERNAL_FIELDS_LOAD,     72054 : iP,iLd,i0,i1=    2    3    2    3 ; Wght=  0.7000000000  0.3000000000
 cg2d: Sum(rhs),rhsMax =  -2.28794760914752E-12  4.23698091158782E+00
(PID.TID 0001.0001)      cg2d_init_res =   3.07449585010220E-02
(PID.TID 0001.0001)      cg2d_iters(min,last) =      -1      84
(PID.TID 0001.0001)      cg2d_last_res =   8.80368325180903E-10
 DRIVER_GET_EXPORT_STATE_3D:MASK : Associated & shape =          32          32          15
 EXTERNAL_FIELDS_LOAD,     72055 : iP,iLd,i0,i1=    2    3    2    3 ; Wght=  0.6666666667  0.3333333333
 cg2d: Sum(rhs),rhsMax =  -2.30215846386272E-12  4.23832318770522E+00
(PID.TID 0001.0001)      cg2d_init_res =   3.06687410211081E-02
(PID.TID 0001.0001)      cg2d_iters(min,last) =      -1      84
(PID.TID 0001.0001)      cg2d_last_res =   9.32686385945208E-10
 DRIVER_GET_EXPORT_STATE_3D:MASK : Associated & shape =          32          32          15
 EXTERNAL_FIELDS_LOAD,     72056 : iP,iLd,i0,i1=    2    3    2    3 ; Wght=  0.6333333333  0.3666666667
 cg2d: Sum(rhs),rhsMax =  -2.35189645536593E-12  4.23923450629728E+00
(PID.TID 0001.0001)      cg2d_init_res =   3.08445511531326E-02
(PID.TID 0001.0001)      cg2d_iters(min,last) =      -1      84
(PID.TID 0001.0001)      cg2d_last_res =   8.70585619180695E-10
 DRIVER_GET_EXPORT_STATE_3D:MASK : Associated & shape =          32          32          15
 EXTERNAL_FIELDS_LOAD,     72057 : iP,iLd,i0,i1=    2    3    2    3 ; Wght=  0.6000000000  0.4000000000
 cg2d: Sum(rhs),rhsMax =  -2.17426077142591E-12  4.23970657138745E+00
(PID.TID 0001.0001)      cg2d_init_res =   3.05367946547854E-02
(PID.TID 0001.0001)      cg2d_iters(min,last) =      -1      84
(PID.TID 0001.0001)      cg2d_last_res =   8.27844442452882E-10
 DRIVER_GET_EXPORT_STATE_3D:MASK : Associated & shape =          32          32          15
 EXTERNAL_FIELDS_LOAD,     72058 : iP,iLd,i0,i1=    2    3    2    3 ; Wght=  0.5666666667  0.4333333333
 cg2d: Sum(rhs),rhsMax =  -2.19557705349871E-12  4.23973734856315E+00
(PID.TID 0001.0001)      cg2d_init_res =   2.97321302930530E-02
(PID.TID 0001.0001)      cg2d_iters(min,last) =      -1      84
(PID.TID 0001.0001)      cg2d_last_res =   8.45138701838139E-10
 DRIVER_GET_EXPORT_STATE_3D:MASK : Associated & shape =          32          32          15
 EXTERNAL_FIELDS_LOAD,     72059 : iP,iLd,i0,i1=    2    3    2    3 ; Wght=  0.5333333333  0.4666666667
 cg2d: Sum(rhs),rhsMax =  -2.24531504500192E-12  4.23933096104203E+00
(PID.TID 0001.0001)      cg2d_init_res =   2.95284057692218E-02
(PID.TID 0001.0001)      cg2d_iters(min,last) =      -1      84
(PID.TID 0001.0001)      cg2d_last_res =   9.28139504680613E-10
(PID.TID 0001.0001) %CHECKPOINT     72060 0000072060
 DRIVER_GET_EXPORT_STATE_3D:MASK : Associated & shape =          32          32          15
 EXTERNAL_FIELDS_LOAD,     72060 : iP,iLd,i0,i1=    2    3    2    3 ; Wght=  0.5000000000  0.5000000000
 cg2d: Sum(rhs),rhsMax =  -2.19557705349871E-12  4.23849740350905E+00
(PID.TID 0001.0001)      cg2d_init_res =   2.94060032750713E-02
(PID.TID 0001.0001)      cg2d_iters(min,last) =      -1      85
(PID.TID 0001.0001)      cg2d_last_res =   8.45400969755324E-10
 DRIVER_GET_EXPORT_STATE_3D:MASK : Associated & shape =          32          32          15
 EXTERNAL_FIELDS_LOAD,     72061 : iP,iLd,i0,i1=    2    3    2    3 ; Wght=  0.4666666667  0.5333333333
 cg2d: Sum(rhs),rhsMax =  -2.28794760914752E-12  4.23725211294848E+00
(PID.TID 0001.0001)      cg2d_init_res =   2.93430295947000E-02
(PID.TID 0001.0001)      cg2d_iters(min,last) =      -1      85
(PID.TID 0001.0001)      cg2d_last_res =   9.33734809290112E-10
 DRIVER_GET_EXPORT_STATE_3D:MASK : Associated & shape =          32          32          15
 EXTERNAL_FIELDS_LOAD,     72062 : iP,iLd,i0,i1=    2    3    2    3 ; Wght=  0.4333333333  0.5666666667
 cg2d: Sum(rhs),rhsMax =  -2.26663132707472E-12  4.23561545575896E+00
(PID.TID 0001.0001)      cg2d_init_res =   2.92742512466895E-02
(PID.TID 0001.0001)      cg2d_iters(min,last) =      -1      86
(PID.TID 0001.0001)      cg2d_last_res =   8.57802957789082E-10
 DRIVER_GET_EXPORT_STATE_3D:MASK : Associated & shape =          32          32          15
 EXTERNAL_FIELDS_LOAD,     72063 : iP,iLd,i0,i1=    2    3    2    3 ; Wght=  0.4000000000  0.6000000000
 cg2d: Sum(rhs),rhsMax =  -2.28794760914752E-12  4.23361218547542E+00
(PID.TID 0001.0001)      cg2d_init_res =   2.92598997811057E-02
(PID.TID 0001.0001)      cg2d_iters(min,last) =      -1      86
(PID.TID 0001.0001)      cg2d_last_res =   9.12022005027763E-10
 DRIVER_GET_EXPORT_STATE_3D:MASK : Associated & shape =          32          32          15
 EXTERNAL_FIELDS_LOAD,     72064 : iP,iLd,i0,i1=    2    3    2    3 ; Wght=  0.3666666667  0.6333333333
 cg2d: Sum(rhs),rhsMax =  -2.17426077142591E-12  4.23127088071094E+00
(PID.TID 0001.0001)      cg2d_init_res =   2.92855898460014E-02
(PID.TID 0001.0001)      cg2d_iters(min,last) =      -1      86
(PID.TID 0001.0001)      cg2d_last_res =   9.49765320398131E-10
 DRIVER_GET_EXPORT_STATE_3D:MASK : Associated & shape =          32          32          15
 EXTERNAL_FIELDS_LOAD,     72065 : iP,iLd,i0,i1=    2    3    2    3 ; Wght=  0.3333333333  0.6666666667
 cg2d: Sum(rhs),rhsMax =  -2.31636931857793E-12  4.22862338092626E+00
(PID.TID 0001.0001)      cg2d_init_res =   2.92968121504033E-02
(PID.TID 0001.0001)      cg2d_iters(min,last) =      -1      86
(PID.TID 0001.0001)      cg2d_last_res =   9.78410579304764E-10
 DRIVER_GET_EXPORT_STATE_3D:MASK : Associated & shape =          32          32          15
 EXTERNAL_FIELDS_LOAD,     72066 : iP,iLd,i0,i1=    2    3    2    3 ; Wght=  0.3000000000  0.7000000000
 cg2d: Sum(rhs),rhsMax =  -2.30926389122033E-12  4.22570422472920E+00
(PID.TID 0001.0001)      cg2d_init_res =   2.93319699201086E-02
(PID.TID 0001.0001)      cg2d_iters(min,last) =      -1      86
(PID.TID 0001.0001)      cg2d_last_res =   9.95210412625890E-10
 DRIVER_GET_EXPORT_STATE_3D:MASK : Associated & shape =          32          32          15
 EXTERNAL_FIELDS_LOAD,     72067 : iP,iLd,i0,i1=    2    3    2    3 ; Wght=  0.2666666667  0.7333333333
 cg2d: Sum(rhs),rhsMax =  -2.21689333557151E-12  4.22255008878328E+00
(PID.TID 0001.0001)      cg2d_init_res =   2.93964900562652E-02
(PID.TID 0001.0001)      cg2d_iters(min,last) =      -1      87
(PID.TID 0001.0001)      cg2d_last_res =   8.64875148243635E-10
 DRIVER_GET_EXPORT_STATE_3D:MASK : Associated & shape =          32          32          15
 EXTERNAL_FIELDS_LOAD,     72068 : iP,iLd,i0,i1=    2    3    2    3 ; Wght=  0.2333333333  0.7666666667
 cg2d: Sum(rhs),rhsMax =  -2.30926389122033E-12  4.21919922292975E+00
(PID.TID 0001.0001)      cg2d_init_res =   2.94547940192741E-02
(PID.TID 0001.0001)      cg2d_iters(min,last) =      -1      87
(PID.TID 0001.0001)      cg2d_last_res =   8.65716485296740E-10
 DRIVER_GET_EXPORT_STATE_3D:MASK : Associated & shape =          32          32          15
 EXTERNAL_FIELDS_LOAD,     72069 : iP,iLd,i0,i1=    2    3    2    3 ; Wght=  0.2000000000  0.8000000000
 cg2d: Sum(rhs),rhsMax =  -2.24531504500192E-12  4.21569087837304E+00
(PID.TID 0001.0001)      cg2d_init_res =   2.95311873297774E-02
(PID.TID 0001.0001)      cg2d_iters(min,last) =      -1      86
(PID.TID 0001.0001)      cg2d_last_res =   9.89848385818287E-10
 DRIVER_GET_EXPORT_STATE_3D:MASK : Associated & shape =          32          32          15
 EXTERNAL_FIELDS_LOAD,     72070 : iP,iLd,i0,i1=    2    3    2    3 ; Wght=  0.1666666667  0.8333333333
 cg2d: Sum(rhs),rhsMax =  -2.26663132707472E-12  4.21206473562251E+00
(PID.TID 0001.0001)      cg2d_init_res =   2.96038346112465E-02
(PID.TID 0001.0001)      cg2d_iters(min,last) =      -1      86
(PID.TID 0001.0001)      cg2d_last_res =   9.62893228077589E-10
 DRIVER_GET_EXPORT_STATE_3D:MASK : Associated & shape =          32          32          15
 EXTERNAL_FIELDS_LOAD,     72071 : iP,iLd,i0,i1=    2    3    2    3 ; Wght=  0.1333333333  0.8666666667
 cg2d: Sum(rhs),rhsMax =  -2.29505303650512E-12  4.20836033673115E+00
(PID.TID 0001.0001)      cg2d_init_res =   2.96849025483187E-02
(PID.TID 0001.0001)      cg2d_iters(min,last) =      -1      86
(PID.TID 0001.0001)      cg2d_last_res =   9.19948798470152E-10
 DRIVER_GET_EXPORT_STATE_3D:MASK : Associated & shape =          32          32          15
 EXTERNAL_FIELDS_LOAD,     72072 : iP,iLd,i0,i1=    2    3    2    3 ; Wght=  0.1000000000  0.9000000000
 cg2d: Sum(rhs),rhsMax =  -2.29505303650512E-12  4.20596705022154E+00
(PID.TID 0001.0001)      cg2d_init_res =   2.97425529859576E-02
(PID.TID 0001.0001)      cg2d_iters(min,last) =      -1      85
(PID.TID 0001.0001)      cg2d_last_res =   9.95095594388401E-10
 DRIVER_GET_EXPORT_STATE_3D:MASK : Associated & shape =          32          32          15
 EXTERNAL_FIELDS_LOAD,     72073 : iP,iLd,i0,i1=    2    3    2    3 ; Wght=  0.0666666667  0.9333333333
 cg2d: Sum(rhs),rhsMax =  -2.29505303650512E-12  4.20692354246547E+00
(PID.TID 0001.0001)      cg2d_init_res =   2.97835405128729E-02
(PID.TID 0001.0001)      cg2d_iters(min,last) =      -1      85
(PID.TID 0001.0001)      cg2d_last_res =   9.23881590136895E-10
 DRIVER_GET_EXPORT_STATE_3D:MASK : Associated & shape =          32          32          15
 EXTERNAL_FIELDS_LOAD,     72074 : iP,iLd,i0,i1=    2    3    2    3 ; Wght=  0.0333333333  0.9666666667
 cg2d: Sum(rhs),rhsMax =  -2.38742359215394E-12  4.20769748415605E+00
(PID.TID 0001.0001)      cg2d_init_res =   2.98172489912688E-02
(PID.TID 0001.0001)      cg2d_iters(min,last) =      -1      85
(PID.TID 0001.0001)      cg2d_last_res =   8.71623509160568E-10
 DRIVER_GET_EXPORT_STATE_3D:MASK : Associated & shape =          32          32          15
 EXTERNAL_FIELDS_LOAD,     72075 : iP,iLd,i0,i1=    2    3    3    4 ; Wght=  1.0000000000  0.0000000000
 EXTERNAL_FIELDS_LOAD, it=     72075 : Reading new data, i0,i1=    3    4 (prev=    2    3 )
 cg2d: Sum(rhs),rhsMax =  -2.21689333557151E-12  4.20828878582472E+00
(PID.TID 0001.0001)      cg2d_init_res =   2.98688258011258E-02
(PID.TID 0001.0001)      cg2d_iters(min,last) =      -1      85
(PID.TID 0001.0001)      cg2d_last_res =   8.58406266688864E-10
 DRIVER_GET_EXPORT_STATE_3D:MASK : Associated & shape =          32          32          15
 EXTERNAL_FIELDS_LOAD,     72076 : iP,iLd,i0,i1=    3    4    3    4 ; Wght=  0.9666666667  0.0333333333
 cg2d: Sum(rhs),rhsMax =  -2.30215846386272E-12  4.20863361903168E+00
(PID.TID 0001.0001)      cg2d_init_res =   2.99102468290743E-02
(PID.TID 0001.0001)      cg2d_iters(min,last) =      -1      85
(PID.TID 0001.0001)      cg2d_last_res =   9.00347564863708E-10
 DRIVER_GET_EXPORT_STATE_3D:MASK : Associated & shape =          32          32          15
 EXTERNAL_FIELDS_LOAD,     72077 : iP,iLd,i0,i1=    3    4    3    4 ; Wght=  0.9333333333  0.0666666667
 cg2d: Sum(rhs),rhsMax =  -2.28084218178992E-12  4.20882508248203E+00
(PID.TID 0001.0001)      cg2d_init_res =   2.97790406171022E-02
(PID.TID 0001.0001)      cg2d_iters(min,last) =      -1      85
(PID.TID 0001.0001)      cg2d_last_res =   9.24994459379777E-10
 DRIVER_GET_EXPORT_STATE_3D:MASK : Associated & shape =          32          32          15
 EXTERNAL_FIELDS_LOAD,     72078 : iP,iLd,i0,i1=    3    4    3    4 ; Wght=  0.9000000000  0.1000000000
 cg2d: Sum(rhs),rhsMax =  -2.23110419028671E-12  4.20887134152155E+00
(PID.TID 0001.0001)      cg2d_init_res =   2.94439982690390E-02
(PID.TID 0001.0001)      cg2d_iters(min,last) =      -1      85
(PID.TID 0001.0001)      cg2d_last_res =   9.29853929137742E-10
 DRIVER_GET_EXPORT_STATE_3D:MASK : Associated & shape =          32          32          15
 EXTERNAL_FIELDS_LOAD,     72079 : iP,iLd,i0,i1=    3    4    3    4 ; Wght=  0.8666666667  0.1333333333
 cg2d: Sum(rhs),rhsMax =  -2.37321273743873E-12  4.20878890081879E+00
(PID.TID 0001.0001)      cg2d_init_res =   2.92246745741351E-02
(PID.TID 0001.0001)      cg2d_iters(min,last) =      -1      85
(PID.TID 0001.0001)      cg2d_last_res =   9.36781505541376E-10
(PID.TID 0001.0001) %CHECKPOINT     72080 0000072080
 DRIVER_GET_EXPORT_STATE_3D:MASK : Associated & shape =          32          32          15
 EXTERNAL_FIELDS_LOAD,     72080 : iP,iLd,i0,i1=    3    4    3    4 ; Wght=  0.8333333333  0.1666666667
 cg2d: Sum(rhs),rhsMax =  -2.24531504500192E-12  4.20858756372376E+00
(PID.TID 0001.0001)      cg2d_init_res =   2.90042885209450E-02
(PID.TID 0001.0001)      cg2d_iters(min,last) =      -1      85
(PID.TID 0001.0001)      cg2d_last_res =   9.47444504154070E-10
 DRIVER_GET_EXPORT_STATE_3D:MASK : Associated & shape =          32          32          15
 EXTERNAL_FIELDS_LOAD,     72081 : iP,iLd,i0,i1=    3    4    3    4 ; Wght=  0.8000000000  0.2000000000
 cg2d: Sum(rhs),rhsMax =  -2.30215846386272E-12  4.20828127236413E+00
(PID.TID 0001.0001)      cg2d_init_res =   2.88057038326690E-02
(PID.TID 0001.0001)      cg2d_iters(min,last) =      -1      85
(PID.TID 0001.0001)      cg2d_last_res =   9.52512786102039E-10
 DRIVER_GET_EXPORT_STATE_3D:MASK : Associated & shape =          32          32          15
 EXTERNAL_FIELDS_LOAD,     72082 : iP,iLd,i0,i1=    3    4    3    4 ; Wght=  0.7666666667  0.2333333333
 cg2d: Sum(rhs),rhsMax =  -2.38031816479634E-12  4.20788809342381E+00
(PID.TID 0001.0001)      cg2d_init_res =   2.85806146001632E-02
(PID.TID 0001.0001)      cg2d_iters(min,last) =      -1      85
(PID.TID 0001.0001)      cg2d_last_res =   9.35357887181018E-10
 DRIVER_GET_EXPORT_STATE_3D:MASK : Associated & shape =          32          32          15
 EXTERNAL_FIELDS_LOAD,     72083 : iP,iLd,i0,i1=    3    4    3    4 ; Wght=  0.7333333333  0.2666666667
 cg2d: Sum(rhs),rhsMax =  -2.28794760914752E-12  4.20742802616842E+00
(PID.TID 0001.0001)      cg2d_init_res =   2.83618490654083E-02
(PID.TID 0001.0001)      cg2d_iters(min,last) =      -1      85
(PID.TID 0001.0001)      cg2d_last_res =   8.60827433366967E-10
 DRIVER_GET_EXPORT_STATE_3D:MASK : Associated & shape =          32          32          15
 EXTERNAL_FIELDS_LOAD,     72084 : iP,iLd,i0,i1=    3    4    3    4 ; Wght=  0.7000000000  0.3000000000
 cg2d: Sum(rhs),rhsMax =  -2.33058017329313E-12  4.20692207362944E+00
(PID.TID 0001.0001)      cg2d_init_res =   2.81629770982282E-02
(PID.TID 0001.0001)      cg2d_iters(min,last) =      -1      83
(PID.TID 0001.0001)      cg2d_last_res =   9.17923713975967E-10
 DRIVER_GET_EXPORT_STATE_3D:MASK : Associated & shape =          32          32          15
 EXTERNAL_FIELDS_LOAD,     72085 : iP,iLd,i0,i1=    3    4    3    4 ; Wght=  0.6666666667  0.3333333333
 cg2d: Sum(rhs),rhsMax =  -2.35189645536593E-12  4.20639176007730E+00
(PID.TID 0001.0001)      cg2d_init_res =   2.79644947899970E-02
(PID.TID 0001.0001)      cg2d_iters(min,last) =      -1      84
(PID.TID 0001.0001)      cg2d_last_res =   9.95950861972619E-10
 DRIVER_GET_EXPORT_STATE_3D:MASK : Associated & shape =          32          32          15
 EXTERNAL_FIELDS_LOAD,     72086 : iP,iLd,i0,i1=    3    4    3    4 ; Wght=  0.6333333333  0.3666666667
 cg2d: Sum(rhs),rhsMax =  -2.31636931857793E-12  4.20585858420454E+00
(PID.TID 0001.0001)      cg2d_init_res =   2.77815190009472E-02
(PID.TID 0001.0001)      cg2d_iters(min,last) =      -1      85
(PID.TID 0001.0001)      cg2d_last_res =   8.50514630500340E-10
 DRIVER_GET_EXPORT_STATE_3D:MASK : Associated & shape =          32          32          15
 EXTERNAL_FIELDS_LOAD,     72087 : iP,iLd,i0,i1=    3    4    3    4 ; Wght=  0.6000000000  0.4000000000
 cg2d: Sum(rhs),rhsMax =  -2.29505303650512E-12  4.20534343950251E+00
(PID.TID 0001.0001)      cg2d_init_res =   2.76236534547496E-02
(PID.TID 0001.0001)      cg2d_iters(min,last) =      -1      85
(PID.TID 0001.0001)      cg2d_last_res =   9.59909063517554E-10
 DRIVER_GET_EXPORT_STATE_3D:MASK : Associated & shape =          32          32          15
 EXTERNAL_FIELDS_LOAD,     72088 : iP,iLd,i0,i1=    3    4    3    4 ; Wght=  0.5666666667  0.4333333333
 cg2d: Sum(rhs),rhsMax =  -2.24531504500192E-12  4.20486614857545E+00
(PID.TID 0001.0001)      cg2d_init_res =   2.74608777888678E-02
(PID.TID 0001.0001)      cg2d_iters(min,last) =      -1      86
(PID.TID 0001.0001)      cg2d_last_res =   8.70122995132341E-10
 DRIVER_GET_EXPORT_STATE_3D:MASK : Associated & shape =          32          32          15
 EXTERNAL_FIELDS_LOAD,     72089 : iP,iLd,i0,i1=    3    4    3    4 ; Wght=  0.5333333333  0.4666666667
 cg2d: Sum(rhs),rhsMax =  -2.26663132707472E-12  4.20444516073495E+00
(PID.TID 0001.0001)      cg2d_init_res =   2.73293371964300E-02
(PID.TID 0001.0001)      cg2d_iters(min,last) =      -1      86
(PID.TID 0001.0001)      cg2d_last_res =   9.20663955550937E-10
 DRIVER_GET_EXPORT_STATE_3D:MASK : Associated & shape =          32          32          15
 EXTERNAL_FIELDS_LOAD,     72090 : iP,iLd,i0,i1=    3    4    3    4 ; Wght=  0.5000000000  0.5000000000
 cg2d: Sum(rhs),rhsMax =  -2.31636931857793E-12  4.20409737325364E+00
(PID.TID 0001.0001)      cg2d_init_res =   2.72249525335586E-02
(PID.TID 0001.0001)      cg2d_iters(min,last) =      -1      86
(PID.TID 0001.0001)      cg2d_last_res =   9.59211200799588E-10
 DRIVER_GET_EXPORT_STATE_3D:MASK : Associated & shape =          32          32          15
 EXTERNAL_FIELDS_LOAD,     72091 : iP,iLd,i0,i1=    3    4    3    4 ; Wght=  0.4666666667  0.5333333333
 cg2d: Sum(rhs),rhsMax =  -2.35189645536593E-12  4.20383801830756E+00
(PID.TID 0001.0001)      cg2d_init_res =   2.71423888110356E-02
(PID.TID 0001.0001)      cg2d_iters(min,last) =      -1      86
(PID.TID 0001.0001)      cg2d_last_res =   9.88501010518269E-10
 DRIVER_GET_EXPORT_STATE_3D:MASK : Associated & shape =          32          32          15
 EXTERNAL_FIELDS_LOAD,     72092 : iP,iLd,i0,i1=    3    4    3    4 ; Wght=  0.4333333333  0.5666666667
 cg2d: Sum(rhs),rhsMax =  -2.27373675443232E-12  4.20368058689180E+00
(PID.TID 0001.0001)      cg2d_init_res =   2.70927578323342E-02
(PID.TID 0001.0001)      cg2d_iters(min,last) =      -1      87
(PID.TID 0001.0001)      cg2d_last_res =   8.71078528319432E-10
 DRIVER_GET_EXPORT_STATE_3D:MASK : Associated & shape =          32          32          15
 EXTERNAL_FIELDS_LOAD,     72093 : iP,iLd,i0,i1=    3    4    3    4 ; Wght=  0.4000000000  0.6000000000
 cg2d: Sum(rhs),rhsMax =  -2.33768560065073E-12  4.20363675275616E+00
(PID.TID 0001.0001)      cg2d_init_res =   2.70688729039210E-02
(PID.TID 0001.0001)      cg2d_iters(min,last) =      -1      87
(PID.TID 0001.0001)      cg2d_last_res =   8.88364843976554E-10
 DRIVER_GET_EXPORT_STATE_3D:MASK : Associated & shape =          32          32          15
 EXTERNAL_FIELDS_LOAD,     72094 : iP,iLd,i0,i1=    3    4    3    4 ; Wght=  0.3666666667  0.6333333333
 cg2d: Sum(rhs),rhsMax =  -2.28084218178992E-12  4.20371629539105E+00
(PID.TID 0001.0001)      cg2d_init_res =   2.70757410988502E-02
(PID.TID 0001.0001)      cg2d_iters(min,last) =      -1      87
(PID.TID 0001.0001)      cg2d_last_res =   9.01172139268257E-10
 DRIVER_GET_EXPORT_STATE_3D:MASK : Associated & shape =          32          32          15
 EXTERNAL_FIELDS_LOAD,     72095 : iP,iLd,i0,i1=    3    4    3    4 ; Wght=  0.3333333333  0.6666666667
 cg2d: Sum(rhs),rhsMax =  -2.25952589971712E-12  4.20392702390173E+00
(PID.TID 0001.0001)      cg2d_init_res =   2.71390500237857E-02
(PID.TID 0001.0001)      cg2d_iters(min,last) =      -1      87
(PID.TID 0001.0001)      cg2d_last_res =   9.09124525794110E-10
 DRIVER_GET_EXPORT_STATE_3D:MASK : Associated & shape =          32          32          15
