(PID.TID 0001.0001) 
(PID.TID 0001.0001) // ======================================================
(PID.TID 0001.0001) //                      MITgcm UV
(PID.TID 0001.0001) //                      =========
(PID.TID 0001.0001) // ======================================================
(PID.TID 0001.0001) // execution environment starting up...
(PID.TID 0001.0001) 
(PID.TID 0001.0001) // MITgcmUV version:  checkpoint66a
(PID.TID 0001.0001) // Build user:        trayanov
(PID.TID 0001.0001) // Build host:        boygo.gsfc.nasa.gov
(PID.TID 0001.0001) // Build date:        Wed Nov  9 16:18:20 EST 2016
(PID.TID 0001.0001) 
(PID.TID 0001.0001) // =======================================================
(PID.TID 0001.0001) // Execution Environment parameter file "eedata"
(PID.TID 0001.0001) // =======================================================
(PID.TID 0001.0001) ># Example "eedata" file
(PID.TID 0001.0001) ># Lines beginning "#" are comments
(PID.TID 0001.0001) ># nTx - No. threads per process in X
(PID.TID 0001.0001) ># nTy - No. threads per process in Y
(PID.TID 0001.0001) > &EEPARMS
(PID.TID 0001.0001) > useCubedSphereExchange=.TRUE.,
(PID.TID 0001.0001) > nTx=1,
(PID.TID 0001.0001) > nTy=1,
(PID.TID 0001.0001) > &end
(PID.TID 0001.0001) ># Note: Some systems use & as the
(PID.TID 0001.0001) ># namelist terminator. Other systems
(PID.TID 0001.0001) ># use a / character (as shown here).
(PID.TID 0001.0001) 
(PID.TID 0001.0001) // =======================================================
(PID.TID 0001.0001) // Computational Grid Specification ( see files "SIZE.h" )
(PID.TID 0001.0001) //                                  ( and "eedata"       )
(PID.TID 0001.0001) // =======================================================
(PID.TID 0001.0001)      nPx =    6 ; /* No. processes in X */
(PID.TID 0001.0001)      nPy =    1 ; /* No. processes in Y */
(PID.TID 0001.0001)      nSx =    1 ; /* No. tiles in X per process */
(PID.TID 0001.0001)      nSy =    1 ; /* No. tiles in Y per process */
(PID.TID 0001.0001)      sNx =   32 ; /* Tile size in X */
(PID.TID 0001.0001)      sNy =   32 ; /* Tile size in Y */
(PID.TID 0001.0001)      OLx =    4 ; /* Tile overlap distance in X */
(PID.TID 0001.0001)      OLy =    4 ; /* Tile overlap distance in Y */
(PID.TID 0001.0001)      nTx =    1 ; /* No. threads in X per process */
(PID.TID 0001.0001)      nTy =    1 ; /* No. threads in Y per process */
(PID.TID 0001.0001)       Nr =   15 ; /* No. levels in the vertical   */
(PID.TID 0001.0001)       Nx =  192 ; /* Total domain size in X ( = nPx*nSx*sNx ) */
(PID.TID 0001.0001)       Ny =   32 ; /* Total domain size in Y ( = nPy*nSy*sNy ) */
(PID.TID 0001.0001)   nTiles =    1 ; /* Total no. tiles per process ( = nSx*nSy ) */
(PID.TID 0001.0001)   nProcs =    6 ; /* Total no. processes ( = nPx*nPy ) */
(PID.TID 0001.0001) nThreads =    1 ; /* Total no. threads per process ( = nTx*nTy ) */
(PID.TID 0001.0001) usingMPI =    T ; /* Flag used to control whether MPI is in use */
(PID.TID 0001.0001)                   /*  note: To execute a program with MPI calls */
(PID.TID 0001.0001)                   /*  it must be launched appropriately e.g     */
(PID.TID 0001.0001)                   /*  "mpirun -np 64 ......"                    */
(PID.TID 0001.0001) useCoupler=    F ;/* Flag used to control communications with   */
(PID.TID 0001.0001)                   /*  other model components, through a coupler */
(PID.TID 0001.0001) debugMode =    F ; /* print debug msg. (sequence of S/R calls)  */
(PID.TID 0001.0001) printMapIncludesZeros=    F ; /* print zeros in Std.Output maps */
(PID.TID 0001.0001) maxLengthPrt1D=   65 /* maxLength of 1D array printed to StdOut */
(PID.TID 0001.0001) 
(PID.TID 0001.0001) ======= Starting MPI parallel Run =========
(PID.TID 0001.0001)  My Processor Name (len:  8 ) = heracles
(PID.TID 0001.0001)  Located at (  1,  0) on processor grid (0:  5,0:  0)
(PID.TID 0001.0001)  Origin at  (    33,     1) on global grid (1:   192,1:    32)
(PID.TID 0001.0001)  North neighbor = processor 0001
(PID.TID 0001.0001)  South neighbor = processor 0001
(PID.TID 0001.0001)   East neighbor = processor 0002
(PID.TID 0001.0001)   West neighbor = processor 0000
(PID.TID 0001.0001) // ======================================================
(PID.TID 0001.0001) // Mapping of tiles to threads
(PID.TID 0001.0001) // ======================================================
(PID.TID 0001.0001) // -o- Thread   1, tiles (   1:   1,   1:   1)
(PID.TID 0001.0001) 
(PID.TID 0001.0001) W2_READPARMS: file data.exch2 not found
(PID.TID 0001.0001) => use W2_EXCH2 default: regular 6-facets Cube
(PID.TID 0001.0001) W2_useE2ioLayOut=    T ;/* T: use Exch2 glob IO map; F: use model default */
(PID.TID 0001.0001) W2_mapIO        =  -1 ; /* select option for Exch2 global-IO map */
(PID.TID 0001.0001) W2_printMsg     =  -1 ; /* select option for printing information */
(PID.TID 0001.0001) ===== Start setting W2 TOPOLOGY:
(PID.TID 0001.0001)  write to log-file: w2_tile_topology.0001.log
(PID.TID 0001.0001) =====       setting W2 TOPOLOGY: Done
(PID.TID 0001.0001) 
(PID.TID 0001.0001)  INI_PARMS: opening model parameter file "data"
(PID.TID 0001.0001)  OPEN_COPY_DATA_FILE: opening file data
(PID.TID 0001.0001) // =======================================================
(PID.TID 0001.0001) // Parameter file "data"
(PID.TID 0001.0001) // =======================================================
(PID.TID 0001.0001) ># ====================
(PID.TID 0001.0001) ># | Model parameters |
(PID.TID 0001.0001) ># ====================
(PID.TID 0001.0001) >#
(PID.TID 0001.0001) ># Continuous equation parameters
(PID.TID 0001.0001) > &PARM01
(PID.TID 0001.0001) > tRef=15*20.,
(PID.TID 0001.0001) > sRef=15*35.,
(PID.TID 0001.0001) > viscAh =3.E5,
(PID.TID 0001.0001) > viscAr =1.E-3,
(PID.TID 0001.0001) > diffKrT=3.E-5,
(PID.TID 0001.0001) > diffKrS=3.E-5,
(PID.TID 0001.0001) > ivdc_kappa=10.,
(PID.TID 0001.0001) > implicitDiffusion=.TRUE.,
(PID.TID 0001.0001) > rhonil=1035.,
(PID.TID 0001.0001) > rhoConstFresh=1000.,
(PID.TID 0001.0001) > eosType='JMD95Z',
(PID.TID 0001.0001) > staggerTimeStep=.TRUE.,
(PID.TID 0001.0001) > vectorInvariantMomentum=.TRUE.,
(PID.TID 0001.0001) > implicitFreeSurface=.TRUE.,
(PID.TID 0001.0001) > exactConserv=.TRUE.,
(PID.TID 0001.0001) > select_rStar=2,
(PID.TID 0001.0001) > nonlinFreeSurf=4,
(PID.TID 0001.0001) > useRealFreshWaterFlux=.TRUE.,
(PID.TID 0001.0001) > allowFreezing=.TRUE.,
(PID.TID 0001.0001) > hFacMin=.1,
(PID.TID 0001.0001) > hFacMinDr=20.,
(PID.TID 0001.0001) > readBinaryPrec=64,
(PID.TID 0001.0001) > useSingleCpuIo=.TRUE.,
(PID.TID 0001.0001) > &end
(PID.TID 0001.0001) >
(PID.TID 0001.0001) ># Elliptic solver parameters
(PID.TID 0001.0001) > &PARM02
(PID.TID 0001.0001) > &end
(PID.TID 0001.0001) >
(PID.TID 0001.0001) ># Time stepping parameters
(PID.TID 0001.0001) > &PARM03
(PID.TID 0001.0001) > nIter0           = 72000,
(PID.TID 0001.0001) > nTimeSteps       = 99999,
(PID.TID 0001.0001) > deltaT           = 900.,
(PID.TID 0001.0001) > monitorFreq      = 1.,
(PID.TID 0001.0001) > abEps            = 0.1,
(PID.TID 0001.0001) > tracForcingOutAB = 1,
(PID.TID 0001.0001) > &end
(PID.TID 0001.0001) >
(PID.TID 0001.0001) ># Gridding parameters
(PID.TID 0001.0001) > &PARM04
(PID.TID 0001.0001) > usingCurvilinearGrid=.TRUE.,
(PID.TID 0001.0001) > horizGridFile='grid_cs32',
(PID.TID 0001.0001) > delR= 50., 70., 100., 140., 190.,
(PID.TID 0001.0001) >       240., 290., 340., 390., 440.,
(PID.TID 0001.0001) >       490., 540., 590., 640., 690.,
(PID.TID 0001.0001) > &end
(PID.TID 0001.0001) >
(PID.TID 0001.0001) ># Input datasets
(PID.TID 0001.0001) > &PARM05
(PID.TID 0001.0001) > bathyFile      ='bathy_Hmin50.bin',
(PID.TID 0001.0001) > &end
(PID.TID 0001.0001) 
(PID.TID 0001.0001)  INI_PARMS ; starts to read PARM01
(PID.TID 0001.0001)  INI_PARMS ; read PARM01 : OK
(PID.TID 0001.0001)  INI_PARMS ; starts to read PARM02
(PID.TID 0001.0001)  INI_PARMS ; read PARM02 : OK
(PID.TID 0001.0001)  INI_PARMS ; starts to read PARM03
(PID.TID 0001.0001)  INI_PARMS ; read PARM03 : OK
(PID.TID 0001.0001)  INI_PARMS ; starts to read PARM04
(PID.TID 0001.0001)  INI_PARMS ; read PARM04 : OK
(PID.TID 0001.0001)  INI_PARMS ; starts to read PARM05
(PID.TID 0001.0001)  INI_PARMS ; read PARM05 : OK
(PID.TID 0001.0001)  INI_PARMS: finished reading file "data"
(PID.TID 0001.0001)  PACKAGES_BOOT: opening data.pkg
(PID.TID 0001.0001)  OPEN_COPY_DATA_FILE: opening file data.pkg
(PID.TID 0001.0001) // =======================================================
(PID.TID 0001.0001) // Parameter file "data.pkg"
(PID.TID 0001.0001) // =======================================================
(PID.TID 0001.0001) ># Packages
(PID.TID 0001.0001) > &PACKAGES
(PID.TID 0001.0001) > useGMRedi=.TRUE.,
(PID.TID 0001.0001) > useDiagnostics=.TRUE.,
(PID.TID 0001.0001) > &end
(PID.TID 0001.0001) 
(PID.TID 0001.0001)  PACKAGES_BOOT: finished reading data.pkg
(PID.TID 0001.0001)  PACKAGES_BOOT: On/Off package Summary
 --------  pkgs with a standard "usePKG" On/Off switch in "data.pkg":  --------
 pkg/gmredi               compiled   and   used ( useGMRedi                = T )
 pkg/cal                  compiled but not used ( useCAL                   = F )
 pkg/exf                  compiled but not used ( useEXF                   = F )
 pkg/bulk_force           compiled but not used ( useBulkForce             = F )
 pkg/seaice               compiled but not used ( useSEAICE                = F )
 pkg/thsice               compiled but not used ( useThSIce                = F )
 pkg/diagnostics          compiled   and   used ( useDiagnostics           = T )
 -------- pkgs without standard "usePKG" On/Off switch in "data.pkg":  --------
 pkg/generic_advdiff      compiled   and   used ( useGAD                   = T )
 pkg/mom_common           compiled   and   used ( momStepping              = T )
 pkg/mom_vecinv           compiled   and   used ( +vectorInvariantMomentum = T )
 pkg/mom_fluxform         compiled but not used ( & not vectorInvariantMom = F )
 pkg/monitor              compiled   and   used ( monitorFreq > 0.         = T )
 pkg/timeave              compiled but not used ( taveFreq > 0.            = F )
 pkg/debug                compiled but not used ( debugMode                = F )
 pkg/exch2                compiled   and   used
 pkg/rw                   compiled   and   used
 pkg/mdsio                compiled   and   used
(PID.TID 0001.0001)  PACKAGES_BOOT: End of package Summary
(PID.TID 0001.0001) 
(PID.TID 0001.0001)  GM_READPARMS: opening data.gmredi
(PID.TID 0001.0001)  OPEN_COPY_DATA_FILE: opening file data.gmredi
(PID.TID 0001.0001) // =======================================================
(PID.TID 0001.0001) // Parameter file "data.gmredi"
(PID.TID 0001.0001) // =======================================================
(PID.TID 0001.0001) ># GM+Redi package parameters:
(PID.TID 0001.0001) >
(PID.TID 0001.0001) >#-from MOM :
(PID.TID 0001.0001) ># GM_background_K: 	G & Mc.W  diffusion coefficient
(PID.TID 0001.0001) ># GM_maxSlope    :	max slope of isopycnals
(PID.TID 0001.0001) ># GM_Scrit       :	transition for scaling diffusion coefficient
(PID.TID 0001.0001) ># GM_Sd          :	half width scaling for diffusion coefficient
(PID.TID 0001.0001) ># GM_taper_scheme:	slope clipping or one of the tapering schemes
(PID.TID 0001.0001) ># GM_Kmin_horiz  :	horizontal diffusion minimum value
(PID.TID 0001.0001) >
(PID.TID 0001.0001) >#-Option parameters (needs to "define" options in GMREDI_OPTIONS.h")
(PID.TID 0001.0001) ># GM_isopycK     :	isopycnal diffusion coefficient (default=GM_background_K)
(PID.TID 0001.0001) ># GM_AdvForm     :	turn on GM Advective form       (default=Skew flux form)
(PID.TID 0001.0001) >
(PID.TID 0001.0001) > &GM_PARM01
(PID.TID 0001.0001) >  GM_background_K    = 800.,
(PID.TID 0001.0001) >  GM_taper_scheme    = 'gkw91',
(PID.TID 0001.0001) >  GM_maxSlope        = 1.e-2,
(PID.TID 0001.0001) >  GM_Kmin_horiz      = 50.,
(PID.TID 0001.0001) >  GM_Scrit           = 4.e-3,
(PID.TID 0001.0001) >  GM_Sd              = 1.e-3,
(PID.TID 0001.0001) ># GM_Visbeck_alpha   = 0.,
(PID.TID 0001.0001) ># GM_Visbeck_length  = 2.e+5,
(PID.TID 0001.0001) ># GM_Visbeck_depth   = 1.e+3,
(PID.TID 0001.0001) ># GM_Visbeck_maxval_K= 2.5e+3,
(PID.TID 0001.0001) > &end
(PID.TID 0001.0001) >
(PID.TID 0001.0001) >
(PID.TID 0001.0001) 
(PID.TID 0001.0001)  GM_READPARMS: finished reading data.gmredi
(PID.TID 0001.0001)  DIAGNOSTICS_READPARMS: opening data.diagnostics
(PID.TID 0001.0001)  OPEN_COPY_DATA_FILE: opening file data.diagnostics
(PID.TID 0001.0001) // =======================================================
(PID.TID 0001.0001) // Parameter file "data.diagnostics"
(PID.TID 0001.0001) // =======================================================
(PID.TID 0001.0001) ># Diagnostic Package Choices
(PID.TID 0001.0001) >#--------------------
(PID.TID 0001.0001) >#  dumpAtLast (logical): always write output at the end of simulation (default=F)
(PID.TID 0001.0001) >#  diag_mnc   (logical): write to NetCDF files (default=useMNC)
(PID.TID 0001.0001) >#--for each output-stream:
(PID.TID 0001.0001) >#  fileName(n) : prefix of the output file name (max 80c long) for outp.stream n
(PID.TID 0001.0001) >#  frequency(n):< 0 : write snap-shot output every |frequency| seconds
(PID.TID 0001.0001) >#               > 0 : write time-average output every frequency seconds
(PID.TID 0001.0001) >#  timePhase(n)     : write at time = timePhase + multiple of |frequency|
(PID.TID 0001.0001) >#    averagingFreq  : frequency (in s) for periodic averaging interval
(PID.TID 0001.0001) >#    averagingPhase : phase     (in s) for periodic averaging interval
(PID.TID 0001.0001) >#    repeatCycle    : number of averaging intervals in 1 cycle
(PID.TID 0001.0001) >#  levels(:,n) : list of levels to write to file (Notes: declared as REAL)
(PID.TID 0001.0001) >#                when this entry is missing, select all common levels of this list
(PID.TID 0001.0001) >#  fields(:,n) : list of selected diagnostics fields (8.c) in outp.stream n
(PID.TID 0001.0001) >#                (see "available_diagnostics.log" file for the full list of diags)
(PID.TID 0001.0001) >#  missing_value(n) : missing value for real-type fields in output file "n"
(PID.TID 0001.0001) >#  fileFlags(n)     : specific code (8c string) for output file "n"
(PID.TID 0001.0001) >#--------------------
(PID.TID 0001.0001) ># oceTAUX  zonal surface wind stress, >0 increases uVel (N/m^2)
(PID.TID 0001.0001) ># oceTAUY  meridional surf. wind stress, >0 increases vVel (N/m^2)
(PID.TID 0001.0001) ># oceFWflx net surface Fresh-Water flux into ocean, >0 decreases salinity (kg/m^2/s)
(PID.TID 0001.0001) ># oceSflux net surface Salt flux into the ocean, >0 increases salinity (g/m^2/s)
(PID.TID 0001.0001) ># oceQnet  net surface heat flux into the ocean, >0 increases theta (W/m^2)
(PID.TID 0001.0001) ># oceQsw   net Short-Wave radiation (+=down), >0 increases theta (W/m^2)
(PID.TID 0001.0001) ># SSS      Sea Surface Salinity (g/kg)
(PID.TID 0001.0001) ># SST      Sea Surface Temperature (degC)
(PID.TID 0001.0001) ># UVEL1    Zonal Surface Velocity (m/s)
(PID.TID 0001.0001) ># VVEL1    Meridional Surface Velocity (m/s)
(PID.TID 0001.0001) >
(PID.TID 0001.0001) > &DIAGNOSTICS_LIST
(PID.TID 0001.0001) >   frequency(1)  = -3600.,
(PID.TID 0001.0001) >    fields(1,1)  = 'oceTAUX ',
(PID.TID 0001.0001) >    filename(1)  = 'oceTAUX',
(PID.TID 0001.0001) >   frequency(2)  = -3600.,
(PID.TID 0001.0001) >    fields(1,2)  = 'oceTAUY ',
(PID.TID 0001.0001) >    filename(2)  = 'oceTAUY',
(PID.TID 0001.0001) >   frequency(3)  = -3600.,
(PID.TID 0001.0001) >    fields(1,3)  = 'oceFWflx',
(PID.TID 0001.0001) >    filename(3)  = 'oceFWflx',
(PID.TID 0001.0001) >   frequency(4)  = -3600.,
(PID.TID 0001.0001) >    fields(1,4)  = 'oceSflux',
(PID.TID 0001.0001) >    filename(4)  = 'oceSflux',
(PID.TID 0001.0001) >   frequency(5)  = -3600.,
(PID.TID 0001.0001) >    fields(1,5)  = 'oceQnet ',
(PID.TID 0001.0001) >    filename(5)  = 'oceQnet',
(PID.TID 0001.0001) >   frequency(6)  = -3600.,
(PID.TID 0001.0001) >    fields(1,6)  = 'oceQsw  ',
(PID.TID 0001.0001) >    filename(6)  = 'oceQsw',
(PID.TID 0001.0001) >   frequency(7)  = -3600.,
(PID.TID 0001.0001) >    fields(1,7)  = 'SALT    ',
(PID.TID 0001.0001) >    levels(1,7)  = 1.,
(PID.TID 0001.0001) >    filename(7)  = 'SSS',
(PID.TID 0001.0001) >   frequency(8)  = -3600.,
(PID.TID 0001.0001) >    fields(1,8)  = 'THETA   ',
(PID.TID 0001.0001) >    levels(1,8)  = 1.,
(PID.TID 0001.0001) >    filename(8)  = 'SST',
(PID.TID 0001.0001) >   frequency(9)  = -3600.,
(PID.TID 0001.0001) >    fields(1,9)  = 'UVELMASS',
(PID.TID 0001.0001) >    levels(1,9)  = 1.,
(PID.TID 0001.0001) >    filename(9)  = 'UVEL1',
(PID.TID 0001.0001) >   frequency(10) = -3600.,
(PID.TID 0001.0001) >    fields(1,10) = 'VVELMASS',
(PID.TID 0001.0001) >    levels(1,10) = 1.,
(PID.TID 0001.0001) >    filename(10) = 'VVEL1',
(PID.TID 0001.0001) > /
(PID.TID 0001.0001) >
(PID.TID 0001.0001) > &DIAG_STATIS_PARMS
(PID.TID 0001.0001) > /
(PID.TID 0001.0001) 
(PID.TID 0001.0001) S/R DIAGNOSTICS_READPARMS, read namelist "diagnostics_list": start
(PID.TID 0001.0001) S/R DIAGNOSTICS_READPARMS, read namelist "diagnostics_list": OK
(PID.TID 0001.0001) S/R DIAGNOSTICS_READPARMS, read namelist "DIAG_STATIS_PARMS": start
(PID.TID 0001.0001) S/R DIAGNOSTICS_READPARMS, read namelist "DIAG_STATIS_PARMS": OK
(PID.TID 0001.0001)  DIAGNOSTICS_READPARMS: global parameter summary:
(PID.TID 0001.0001)  dumpAtLast = /* always write time-ave diags at the end */
(PID.TID 0001.0001)                   F
(PID.TID 0001.0001)     ;
(PID.TID 0001.0001)  diag_mnc =   /* write NetCDF output files */
(PID.TID 0001.0001)                   F
(PID.TID 0001.0001)     ;
(PID.TID 0001.0001)  useMissingValue = /* put MissingValue where mask = 0 */
(PID.TID 0001.0001)                   F
(PID.TID 0001.0001)     ;
(PID.TID 0001.0001)  diagCG_maxIters = /* max number of iters in diag_cg2d */
(PID.TID 0001.0001)                     150
(PID.TID 0001.0001)     ;
(PID.TID 0001.0001)  diagCG_resTarget = /* residual target for diag_cg2d */
(PID.TID 0001.0001)                 1.000000000000000E-07
(PID.TID 0001.0001)     ;
(PID.TID 0001.0001)  diagCG_pcOffDFac = /* preconditioner off-diagonal factor */
(PID.TID 0001.0001)                 9.611687812379854E-01
(PID.TID 0001.0001)     ;
(PID.TID 0001.0001) -----------------------------------------------------
(PID.TID 0001.0001)  DIAGNOSTICS_READPARMS: active diagnostics summary:
(PID.TID 0001.0001) -----------------------------------------------------
(PID.TID 0001.0001) Creating Output Stream: oceTAUX
(PID.TID 0001.0001) Output Frequency:      -3600.000000 ; Phase:        1800.000000
(PID.TID 0001.0001)  Averaging Freq.:          0.000000 , Phase:           0.000000 , Cycle:   1
(PID.TID 0001.0001)  missing value: -9.990000000000E+02
(PID.TID 0001.0001)  Levels:    will be set later
(PID.TID 0001.0001)  Fields:    oceTAUX
(PID.TID 0001.0001) Creating Output Stream: oceTAUY
(PID.TID 0001.0001) Output Frequency:      -3600.000000 ; Phase:        1800.000000
(PID.TID 0001.0001)  Averaging Freq.:          0.000000 , Phase:           0.000000 , Cycle:   1
(PID.TID 0001.0001)  missing value: -9.990000000000E+02
(PID.TID 0001.0001)  Levels:    will be set later
(PID.TID 0001.0001)  Fields:    oceTAUY
(PID.TID 0001.0001) Creating Output Stream: oceFWflx
(PID.TID 0001.0001) Output Frequency:      -3600.000000 ; Phase:        1800.000000
(PID.TID 0001.0001)  Averaging Freq.:          0.000000 , Phase:           0.000000 , Cycle:   1
(PID.TID 0001.0001)  missing value: -9.990000000000E+02
(PID.TID 0001.0001)  Levels:    will be set later
(PID.TID 0001.0001)  Fields:    oceFWflx
(PID.TID 0001.0001) Creating Output Stream: oceSflux
(PID.TID 0001.0001) Output Frequency:      -3600.000000 ; Phase:        1800.000000
(PID.TID 0001.0001)  Averaging Freq.:          0.000000 , Phase:           0.000000 , Cycle:   1
(PID.TID 0001.0001)  missing value: -9.990000000000E+02
(PID.TID 0001.0001)  Levels:    will be set later
(PID.TID 0001.0001)  Fields:    oceSflux
(PID.TID 0001.0001) Creating Output Stream: oceQnet
(PID.TID 0001.0001) Output Frequency:      -3600.000000 ; Phase:        1800.000000
(PID.TID 0001.0001)  Averaging Freq.:          0.000000 , Phase:           0.000000 , Cycle:   1
(PID.TID 0001.0001)  missing value: -9.990000000000E+02
(PID.TID 0001.0001)  Levels:    will be set later
(PID.TID 0001.0001)  Fields:    oceQnet
(PID.TID 0001.0001) Creating Output Stream: oceQsw
(PID.TID 0001.0001) Output Frequency:      -3600.000000 ; Phase:        1800.000000
(PID.TID 0001.0001)  Averaging Freq.:          0.000000 , Phase:           0.000000 , Cycle:   1
(PID.TID 0001.0001)  missing value: -9.990000000000E+02
(PID.TID 0001.0001)  Levels:    will be set later
(PID.TID 0001.0001)  Fields:    oceQsw
(PID.TID 0001.0001) Creating Output Stream: SSS
(PID.TID 0001.0001) Output Frequency:      -3600.000000 ; Phase:        1800.000000
(PID.TID 0001.0001)  Averaging Freq.:          0.000000 , Phase:           0.000000 , Cycle:   1
(PID.TID 0001.0001)  missing value: -9.990000000000E+02
(PID.TID 0001.0001)  Levels:       1.
(PID.TID 0001.0001)  Fields:    SALT
(PID.TID 0001.0001) Creating Output Stream: SST
(PID.TID 0001.0001) Output Frequency:      -3600.000000 ; Phase:        1800.000000
(PID.TID 0001.0001)  Averaging Freq.:          0.000000 , Phase:           0.000000 , Cycle:   1
(PID.TID 0001.0001)  missing value: -9.990000000000E+02
(PID.TID 0001.0001)  Levels:       1.
(PID.TID 0001.0001)  Fields:    THETA
(PID.TID 0001.0001) Creating Output Stream: UVEL1
(PID.TID 0001.0001) Output Frequency:      -3600.000000 ; Phase:        1800.000000
(PID.TID 0001.0001)  Averaging Freq.:          0.000000 , Phase:           0.000000 , Cycle:   1
(PID.TID 0001.0001)  missing value: -9.990000000000E+02
(PID.TID 0001.0001)  Levels:       1.
(PID.TID 0001.0001)  Fields:    UVELMASS
(PID.TID 0001.0001) Creating Output Stream: VVEL1
(PID.TID 0001.0001) Output Frequency:      -3600.000000 ; Phase:        1800.000000
(PID.TID 0001.0001)  Averaging Freq.:          0.000000 , Phase:           0.000000 , Cycle:   1
(PID.TID 0001.0001)  missing value: -9.990000000000E+02
(PID.TID 0001.0001)  Levels:       1.
(PID.TID 0001.0001)  Fields:    VVELMASS
(PID.TID 0001.0001) -----------------------------------------------------
(PID.TID 0001.0001)  DIAGNOSTICS_READPARMS: statistics diags. summary:
(PID.TID 0001.0001) -----------------------------------------------------
(PID.TID 0001.0001) 
(PID.TID 0001.0001) SET_PARMS: done
(PID.TID 0001.0001) Enter INI_VERTICAL_GRID: setInterFDr=    T ; setCenterDr=    F
(PID.TID 0001.0001) tile:   2 ; Read from file grid_cs32.face002.bin
(PID.TID 0001.0001)   => xC yC dxF dyF rA xG yG dxV dyU rAz dxC dyC rAw rAs dxG dyG AngleCS AngleSN
(PID.TID 0001.0001) // =======================================================
(PID.TID 0001.0001) // Field Model R_low (ini_masks_etc)
(PID.TID 0001.0001) // CMIN =         -5.200000000000000E+03
(PID.TID 0001.0001) // CMAX =         -5.000000000000000E+01
(PID.TID 0001.0001) // CINT =          1.907407407407407E+02
(PID.TID 0001.0001) // SYMBOLS (CMIN->CMAX): -abcdefghijklmnopqrstuvwxyz+
(PID.TID 0001.0001) //                  0.0: .
(PID.TID 0001.0001) // RANGE I (Lo:Hi:Step):(    29:    68:     1)
(PID.TID 0001.0001) // RANGE J (Lo:Hi:Step):(    36:    -3:    -1)
(PID.TID 0001.0001) // RANGE K (Lo:Hi:Step):(   1:   1:   1)
(PID.TID 0001.0001) // =======================================================
(PID.TID 0001.0001) K =   1
(PID.TID 0001.0001) //                I=38      I=48      I=58      I=68
(PID.TID 0001.0001) // |--J--|901234567|901234567|901234567|901234567|
(PID.TID 0001.0001) //     36 ................................okn.skko
(PID.TID 0001.0001) //     35 ................................kqnzrqqk
(PID.TID 0001.0001) //     34 ...............................vkqn+xnnn
(PID.TID 0001.0001) //     33 ...............................xsrxzz+z.
(PID.TID 0001.0001) //     32 .............................++..u+....z
(PID.TID 0001.0001) //     31 .............................+++++.ztsvd
(PID.TID 0001.0001) //     30 .............................+++++wmegt-
(PID.TID 0001.0001) //     29 ..............................+++yqddhp-
(PID.TID 0001.0001) //     28 ..............................++zwgfcfk-
(PID.TID 0001.0001) //     27 .......+++....................++vnbbbcle
(PID.TID 0001.0001) //     26 .......++sy...................+tq-fdbblc
(PID.TID 0001.0001) //     25 .w.......njo+................+x-----bcgi
(PID.TID 0001.0001) //     24 .w.......likn+.....++.....++znpa----bbdi
(PID.TID 0001.0001) //     23 .zz.....nhhijz....tqq.....+ujgzgd---abci
(PID.TID 0001.0001) //     22 ..zz..rnjffggm...nlmn+....+sffzya--aabci
(PID.TID 0001.0001) //     21 ...ysstlgeeeeoz..ijklt+....lfjzzf---adfc
(PID.TID 0001.0001) //     20 ......lcgfdddhq.+hiilnz++.+oquxyz--adgkf
(PID.TID 0001.0001) //     19 ......aafifccgnrzgghjry.+++sr+lq.--edfkk
(PID.TID 0001.0001) //     18 .....jaacfihggokeeffgt..++++..hhlfdeddke
(PID.TID 0001.0001) //     17 ....icaaccfihfoedddeedy..++...nnqwgfeeke
(PID.TID 0001.0001) //     16 ...jdbaddddgifkccccdccd+.++..++ynvz.tkkq
(PID.TID 0001.0001) //     15 ..sfcbbngfffigcaaabdbcac+.+++++zgmpx...y
(PID.TID 0001.0001) //     14 ..ofddchohffikaaaaabaaa-aw+.+ysnggox++..
(PID.TID 0001.0001) //     13 ..nhfdffholghkaaaaaba-a---flkkuswyy++++y
(PID.TID 0001.0001) //     12 ..skiqddeiiiifaaabae--a---dd--iu+++.+++s
(PID.TID 0001.0001) //     11 ..nkn.fdemijidaaaabi-------a--q+....++.z
(PID.TID 0001.0001) //     10 .uos..dcemikkfdcaabi-------equ+.........
(PID.TID 0001.0001) //      9 +nnv.+ccffhkkiddaadha-----as++..........
(PID.TID 0001.0001) //      8 vkky.jceddefijffdddhb--a-afv............
(PID.TID 0001.0001) //      7 qiht.faaaabdgijgfededcdcb-f+............
(PID.TID 0001.0001) //      6 qdeisc----dfefgifffkklldc--v............
(PID.TID 0001.0001) //      5 ibcimlaaacfbddfjjhijeehf-a-c............
(PID.TID 0001.0001) //      4 abdopfcbdgdbcdehlihgfddc--ms............
(PID.TID 0001.0001) //      3 -aesphfdhgabddeflihhgfecbaaayq+++++.....
(PID.TID 0001.0001) //      2 -aesqhffiea-cdeflkkljifeddcba---bry+....
(PID.TID 0001.0001) //      1 aafonhglid--adfgkkkklkhffddca-----s++++.
(PID.TID 0001.0001) //      0 dfkllilmgebaadfijjiiikjhffdcba-----lllgn
(PID.TID 0001.0001) //     -1 kkiikimiiheccfurkiffhijjigfecb-----l----
(PID.TID 0001.0001) //     -2 mlmlfklklkhednwwsheeghhijjgfdca----g---a
(PID.TID 0001.0001) //     -3 kkimdkmknoiedcfjvpddegghhhhgfdcbaa-n---a
(PID.TID 0001.0001) // =======================================================
(PID.TID 0001.0001) // END OF FIELD                                          =
(PID.TID 0001.0001) // =======================================================
(PID.TID 0001.0001) 
(PID.TID 0001.0001) // =======================================================
(PID.TID 0001.0001) // Field Model Ro_surf (ini_masks_etc)
(PID.TID 0001.0001) // CMIN =         -7.105427357601002E-15
(PID.TID 0001.0001) // CMAX =         -7.105427357601002E-15
(PID.TID 0001.0001) // CINT =          0.000000000000000E+00
(PID.TID 0001.0001) // SYMBOLS (CMIN->CMAX): -abcdefghijklmnopqrstuvwxyz+
(PID.TID 0001.0001) //                  0.0: .
(PID.TID 0001.0001) // RANGE I (Lo:Hi:Step):(    29:    68:     1)
(PID.TID 0001.0001) // RANGE J (Lo:Hi:Step):(    36:    -3:    -1)
(PID.TID 0001.0001) // RANGE K (Lo:Hi:Step):(   1:   1:   1)
(PID.TID 0001.0001) // =======================================================
(PID.TID 0001.0001) // =======================================================
(PID.TID 0001.0001) // END OF FIELD                                          =
(PID.TID 0001.0001) // =======================================================
(PID.TID 0001.0001) 
(PID.TID 0001.0001) // =======================================================
(PID.TID 0001.0001) // Field hFacC at iteration          0
(PID.TID 0001.0001) // CMIN =          1.000000000000000E+00
(PID.TID 0001.0001) // CMAX =          1.000000000000000E+00
(PID.TID 0001.0001) // CINT =          0.000000000000000E+00
(PID.TID 0001.0001) // SYMBOLS (CMIN->CMAX): -abcdefghijklmnopqrstuvwxyz+
(PID.TID 0001.0001) //                  0.0: .
(PID.TID 0001.0001) // RANGE I (Lo:Hi:Step):(    29:    68:     1)
(PID.TID 0001.0001) // RANGE J (Lo:Hi:Step):(    36:    -3:    -1)
(PID.TID 0001.0001) // RANGE K (Lo:Hi:Step):(   1:   1:   1)
(PID.TID 0001.0001) // =======================================================
(PID.TID 0001.0001) // =======================================================
(PID.TID 0001.0001) // END OF FIELD                                          =
(PID.TID 0001.0001) // =======================================================
(PID.TID 0001.0001) 
(PID.TID 0001.0001) // =======================================================
(PID.TID 0001.0001) // Field hFacW at iteration          0
(PID.TID 0001.0001) // CMIN =          1.000000000000000E+00
(PID.TID 0001.0001) // CMAX =          1.000000000000000E+00
(PID.TID 0001.0001) // CINT =          0.000000000000000E+00
(PID.TID 0001.0001) // SYMBOLS (CMIN->CMAX): -abcdefghijklmnopqrstuvwxyz+
(PID.TID 0001.0001) //                  0.0: .
(PID.TID 0001.0001) // RANGE I (Lo:Hi:Step):(    29:    68:     1)
(PID.TID 0001.0001) // RANGE J (Lo:Hi:Step):(    36:    -3:    -1)
(PID.TID 0001.0001) // RANGE K (Lo:Hi:Step):(   1:   1:   1)
(PID.TID 0001.0001) // =======================================================
(PID.TID 0001.0001) // =======================================================
(PID.TID 0001.0001) // END OF FIELD                                          =
(PID.TID 0001.0001) // =======================================================
(PID.TID 0001.0001) 
(PID.TID 0001.0001) // =======================================================
(PID.TID 0001.0001) // Field hFacS at iteration          0
(PID.TID 0001.0001) // CMIN =          1.000000000000000E+00
(PID.TID 0001.0001) // CMAX =          1.000000000000000E+00
(PID.TID 0001.0001) // CINT =          0.000000000000000E+00
(PID.TID 0001.0001) // SYMBOLS (CMIN->CMAX): -abcdefghijklmnopqrstuvwxyz+
(PID.TID 0001.0001) //                  0.0: .
(PID.TID 0001.0001) // RANGE I (Lo:Hi:Step):(    29:    68:     1)
(PID.TID 0001.0001) // RANGE J (Lo:Hi:Step):(    36:    -3:    -1)
(PID.TID 0001.0001) // RANGE K (Lo:Hi:Step):(   1:   1:   1)
(PID.TID 0001.0001) // =======================================================
(PID.TID 0001.0001) // =======================================================
(PID.TID 0001.0001) // END OF FIELD                                          =
(PID.TID 0001.0001) // =======================================================
(PID.TID 0001.0001) 
(PID.TID 0001.0001) GAD_INIT_FIXED: GAD_OlMinSize=  1  0  1
(PID.TID 0001.0001) 
(PID.TID 0001.0001) // ===================================
(PID.TID 0001.0001) // GAD parameters :
(PID.TID 0001.0001) // ===================================
(PID.TID 0001.0001) tempAdvScheme =   /* Temp. Horiz.Advection scheme selector */
(PID.TID 0001.0001)                       2
(PID.TID 0001.0001)     ;
(PID.TID 0001.0001) tempVertAdvScheme =   /* Temp. Vert. Advection scheme selector */
(PID.TID 0001.0001)                       2
(PID.TID 0001.0001)     ;
(PID.TID 0001.0001) tempMultiDimAdvec =   /* use Muti-Dim Advec method for Temp */
(PID.TID 0001.0001)                   F
(PID.TID 0001.0001)     ;
(PID.TID 0001.0001) tempSOM_Advection = /* use 2nd Order Moment Advection for Temp */
(PID.TID 0001.0001)                   F
(PID.TID 0001.0001)     ;
(PID.TID 0001.0001) AdamsBashforthGt = /* apply Adams-Bashforth extrapolation on Gt */
(PID.TID 0001.0001)                   T
(PID.TID 0001.0001)     ;
(PID.TID 0001.0001) AdamsBashforth_T = /* apply Adams-Bashforth extrapolation on Temp */
(PID.TID 0001.0001)                   F
(PID.TID 0001.0001)     ;
(PID.TID 0001.0001) saltAdvScheme =   /* Salt. Horiz.advection scheme selector */
(PID.TID 0001.0001)                       2
(PID.TID 0001.0001)     ;
(PID.TID 0001.0001) saltVertAdvScheme =   /* Salt. Vert. Advection scheme selector */
(PID.TID 0001.0001)                       2
(PID.TID 0001.0001)     ;
(PID.TID 0001.0001) saltMultiDimAdvec =   /* use Muti-Dim Advec method for Salt */
(PID.TID 0001.0001)                   F
(PID.TID 0001.0001)     ;
(PID.TID 0001.0001) saltSOM_Advection = /* use 2nd Order Moment Advection for Salt */
(PID.TID 0001.0001)                   F
(PID.TID 0001.0001)     ;
(PID.TID 0001.0001) AdamsBashforthGs = /* apply Adams-Bashforth extrapolation on Gs */
(PID.TID 0001.0001)                   T
(PID.TID 0001.0001)     ;
(PID.TID 0001.0001) AdamsBashforth_S = /* apply Adams-Bashforth extrapolation on Salt */
(PID.TID 0001.0001)                   F
(PID.TID 0001.0001)     ;
(PID.TID 0001.0001) // ===================================
(PID.TID 0001.0001) ------------------------------------------------------------
(PID.TID 0001.0001) DIAGNOSTICS_SET_LEVELS: done
(PID.TID 0001.0001)  Total Nb of available Diagnostics: ndiagt=   215
(PID.TID 0001.0001) SETDIAG: Allocate  1 x  1 Levels for Diagnostic #    81 oceTAUX
(PID.TID 0001.0001) SETDIAG: Allocate  1 x  1 Levels for Diagnostic #    82 oceTAUY
(PID.TID 0001.0001) SETDIAG: Allocate  1 x  1 Levels for Diagnostic #    85 oceFWflx
(PID.TID 0001.0001) SETDIAG: Allocate  1 x  1 Levels for Diagnostic #    86 oceSflux
(PID.TID 0001.0001) SETDIAG: Allocate  1 x  1 Levels for Diagnostic #    87 oceQnet
(PID.TID 0001.0001) SETDIAG: Allocate  1 x  1 Levels for Diagnostic #    88 oceQsw
(PID.TID 0001.0001) SETDIAG: Allocate 15 x  1 Levels for Diagnostic #    27 SALT
(PID.TID 0001.0001) SETDIAG: Allocate 15 x  1 Levels for Diagnostic #    26 THETA
(PID.TID 0001.0001) SETDIAG: Allocate 15 x  1 Levels for Diagnostic #    45 UVELMASS
(PID.TID 0001.0001) SETDIAG: Allocate 15 x  1 Levels for Diagnostic #    46 VVELMASS
(PID.TID 0001.0001)   space allocated for all diagnostics:      66 levels
(PID.TID 0001.0001)   set mate pointer for diag #    81  oceTAUX  , Parms: UU      U1 , mate:    82
(PID.TID 0001.0001)   set mate pointer for diag #    82  oceTAUY  , Parms: VV      U1 , mate:    81
(PID.TID 0001.0001)   set mate pointer for diag #    45  UVELMASS , Parms: UUr     MR , mate:    46
(PID.TID 0001.0001)   set mate pointer for diag #    46  VVELMASS , Parms: VVr     MR , mate:    45
(PID.TID 0001.0001) DIAGNOSTICS_SET_POINTERS: Set levels for Outp.Stream: oceTAUX
(PID.TID 0001.0001)  Levels:       1.
(PID.TID 0001.0001) DIAGNOSTICS_SET_POINTERS: Set levels for Outp.Stream: oceTAUY
(PID.TID 0001.0001)  Levels:       1.
(PID.TID 0001.0001) DIAGNOSTICS_SET_POINTERS: Set levels for Outp.Stream: oceFWflx
(PID.TID 0001.0001)  Levels:       1.
(PID.TID 0001.0001) DIAGNOSTICS_SET_POINTERS: Set levels for Outp.Stream: oceSflux
(PID.TID 0001.0001)  Levels:       1.
(PID.TID 0001.0001) DIAGNOSTICS_SET_POINTERS: Set levels for Outp.Stream: oceQnet
(PID.TID 0001.0001)  Levels:       1.
(PID.TID 0001.0001) DIAGNOSTICS_SET_POINTERS: Set levels for Outp.Stream: oceQsw
(PID.TID 0001.0001)  Levels:       1.
(PID.TID 0001.0001) DIAGNOSTICS_SET_POINTERS: done
(PID.TID 0001.0001) ------------------------------------------------------------
(PID.TID 0001.0001) DIAGSTATS_SET_REGIONS: define   0 regions:
(PID.TID 0001.0001) ------------------------------------------------------------
(PID.TID 0001.0001)   space allocated for all stats-diags:       0 levels
(PID.TID 0001.0001) DIAGSTATS_SET_POINTERS: done
(PID.TID 0001.0001) ------------------------------------------------------------
(PID.TID 0001.0001) INI_GLOBAL_DOMAIN: Found  19 CS-corner Pts in the domain
(PID.TID 0001.0001) INI_CG2D: CG2D normalisation factor =  1.9156564154949553E-04
(PID.TID 0001.0001) 
(PID.TID 0001.0001) // =======================================================
(PID.TID 0001.0001) // Model configuration
(PID.TID 0001.0001) // =======================================================
(PID.TID 0001.0001) //
(PID.TID 0001.0001) // "Physical" paramters ( PARM01 in namelist )
(PID.TID 0001.0001) //
(PID.TID 0001.0001) buoyancyRelation = /* Type of relation to get Buoyancy */
(PID.TID 0001.0001)               'OCEANIC'
(PID.TID 0001.0001)     ;
(PID.TID 0001.0001) fluidIsAir   =  /* fluid major constituent is Air */
(PID.TID 0001.0001)                   F
(PID.TID 0001.0001)     ;
(PID.TID 0001.0001) fluidIsWater =  /* fluid major constituent is Water */
(PID.TID 0001.0001)                   T
(PID.TID 0001.0001)     ;
(PID.TID 0001.0001) usingPCoords =  /* use p (or p*) vertical coordinate */
(PID.TID 0001.0001)                   F
(PID.TID 0001.0001)     ;
(PID.TID 0001.0001) usingZCoords =  /* use z (or z*) vertical coordinate */
(PID.TID 0001.0001)                   T
(PID.TID 0001.0001)     ;
(PID.TID 0001.0001) tRef =   /* Reference temperature profile ( oC or K ) */
(PID.TID 0001.0001)    15 @  2.000000000000000E+01              /* K =  1: 15 */
(PID.TID 0001.0001)     ;
(PID.TID 0001.0001) sRef =   /* Reference salinity profile ( psu ) */
(PID.TID 0001.0001)    15 @  3.500000000000000E+01              /* K =  1: 15 */
(PID.TID 0001.0001)     ;
(PID.TID 0001.0001) useStrainTensionVisc= /* Use StrainTension Form of Viscous Operator */
(PID.TID 0001.0001)                   F
(PID.TID 0001.0001)     ;
(PID.TID 0001.0001) useVariableVisc = /* Use variable horizontal viscosity */
(PID.TID 0001.0001)                   F
(PID.TID 0001.0001)     ;
(PID.TID 0001.0001) useHarmonicVisc = /* Use harmonic horizontal viscosity */
(PID.TID 0001.0001)                   T
(PID.TID 0001.0001)     ;
(PID.TID 0001.0001) useBiharmonicVisc= /* Use biharmonic horiz.  viscosity */
(PID.TID 0001.0001)                   F
(PID.TID 0001.0001)     ;
(PID.TID 0001.0001) useSmag3D = /* Use isotropic 3-D Smagorinsky viscosity */
(PID.TID 0001.0001)                   F
(PID.TID 0001.0001)     ;
(PID.TID 0001.0001) viscAh  =   /* Lateral harmonic viscosity ( m^2/s ) */
(PID.TID 0001.0001)                 3.000000000000000E+05
(PID.TID 0001.0001)     ;
(PID.TID 0001.0001) viscA4  =   /* Lateral biharmonic viscosity ( m^4/s ) */
(PID.TID 0001.0001)                 0.000000000000000E+00
(PID.TID 0001.0001)     ;
(PID.TID 0001.0001) no_slip_sides =  /* Viscous BCs: No-slip sides */
(PID.TID 0001.0001)                   T
(PID.TID 0001.0001)     ;
(PID.TID 0001.0001) sideDragFactor = /* side-drag scaling factor (non-dim) */
(PID.TID 0001.0001)                 2.000000000000000E+00
(PID.TID 0001.0001)     ;
(PID.TID 0001.0001) viscArNr = /* vertical profile of vertical viscosity ( m^2/s )*/
(PID.TID 0001.0001)    15 @  1.000000000000000E-03              /* K =  1: 15 */
(PID.TID 0001.0001)     ;
(PID.TID 0001.0001) no_slip_bottom =  /* Viscous BCs: No-slip bottom */
(PID.TID 0001.0001)                   T
(PID.TID 0001.0001)     ;
(PID.TID 0001.0001) bottomVisc_pCell = /* Partial-cell in bottom Visc. BC */
(PID.TID 0001.0001)                   F
(PID.TID 0001.0001)     ;
(PID.TID 0001.0001) bottomDragLinear = /* linear bottom-drag coefficient ( m/s ) */
(PID.TID 0001.0001)                 0.000000000000000E+00
(PID.TID 0001.0001)     ;
(PID.TID 0001.0001) bottomDragQuadratic = /* quadratic bottom-drag coefficient (-) */
(PID.TID 0001.0001)                 0.000000000000000E+00
(PID.TID 0001.0001)     ;
(PID.TID 0001.0001) selectBotDragQuadr = /* select quadratic bottom drag options */
(PID.TID 0001.0001)                      -1
(PID.TID 0001.0001)     ;
(PID.TID 0001.0001) diffKhT =   /* Laplacian diffusion of heat laterally ( m^2/s ) */
(PID.TID 0001.0001)                 0.000000000000000E+00
(PID.TID 0001.0001)     ;
(PID.TID 0001.0001) diffK4T =   /* Biharmonic diffusion of heat laterally ( m^4/s ) */
(PID.TID 0001.0001)                 0.000000000000000E+00
(PID.TID 0001.0001)     ;
(PID.TID 0001.0001) diffKhS =   /* Laplacian diffusion of salt laterally ( m^2/s ) */
(PID.TID 0001.0001)                 0.000000000000000E+00
(PID.TID 0001.0001)     ;
(PID.TID 0001.0001) diffK4S =   /* Biharmonic diffusion of salt laterally ( m^4/s ) */
(PID.TID 0001.0001)                 0.000000000000000E+00
(PID.TID 0001.0001)     ;
(PID.TID 0001.0001) diffKrNrT = /* vertical profile of vertical diffusion of Temp ( m^2/s )*/
(PID.TID 0001.0001)    15 @  3.000000000000000E-05              /* K =  1: 15 */
(PID.TID 0001.0001)     ;
(PID.TID 0001.0001) diffKrNrS = /* vertical profile of vertical diffusion of Salt ( m^2/s )*/
(PID.TID 0001.0001)    15 @  3.000000000000000E-05              /* K =  1: 15 */
(PID.TID 0001.0001)     ;
(PID.TID 0001.0001) diffKrBL79surf = /* Surface diffusion for Bryan and Lewis 79 ( m^2/s ) */
(PID.TID 0001.0001)                 0.000000000000000E+00
(PID.TID 0001.0001)     ;
(PID.TID 0001.0001) diffKrBL79deep = /* Deep diffusion for Bryan and Lewis 1979 ( m^2/s ) */
(PID.TID 0001.0001)                 0.000000000000000E+00
(PID.TID 0001.0001)     ;
(PID.TID 0001.0001) diffKrBL79scl = /* Depth scale for Bryan and Lewis 1979 ( m ) */
(PID.TID 0001.0001)                 2.000000000000000E+02
(PID.TID 0001.0001)     ;
(PID.TID 0001.0001) diffKrBL79Ho = /* Turning depth for Bryan and Lewis 1979 ( m ) */
(PID.TID 0001.0001)                -2.000000000000000E+03
(PID.TID 0001.0001)     ;
(PID.TID 0001.0001) ivdc_kappa = /* Implicit Vertical Diffusivity for Convection ( m^2/s) */
(PID.TID 0001.0001)                 1.000000000000000E+01
(PID.TID 0001.0001)     ;
(PID.TID 0001.0001) hMixCriteria=  /* Criteria for mixed-layer diagnostic */
(PID.TID 0001.0001)                -8.000000000000000E-01
(PID.TID 0001.0001)     ;
(PID.TID 0001.0001) dRhoSmall =  /* Parameter for mixed-layer diagnostic */
(PID.TID 0001.0001)                 1.000000000000000E-06
(PID.TID 0001.0001)     ;
(PID.TID 0001.0001) hMixSmooth=  /* Smoothing parameter for mixed-layer diagnostic */
(PID.TID 0001.0001)                 0.000000000000000E+00
(PID.TID 0001.0001)     ;
(PID.TID 0001.0001) eosType =  /* Type of Equation of State */
(PID.TID 0001.0001)               'JMD95Z'
(PID.TID 0001.0001)     ;
(PID.TID 0001.0001) selectP_inEOS_Zc = /* select pressure to use in EOS (0,1,2,3) */
(PID.TID 0001.0001)                       0
(PID.TID 0001.0001)     0= -g*rhoConst*z ; 1= pRef (from tRef,sRef); 2= Hyd P ; 3= Hyd+NH P
(PID.TID 0001.0001)     ;
(PID.TID 0001.0001) HeatCapacity_Cp =  /* Specific heat capacity ( J/kg/K ) */
(PID.TID 0001.0001)                 3.994000000000000E+03
(PID.TID 0001.0001)     ;
(PID.TID 0001.0001) celsius2K = /* 0 degree Celsius converted to Kelvin ( K ) */
(PID.TID 0001.0001)                 2.731500000000000E+02
(PID.TID 0001.0001)     ;
(PID.TID 0001.0001) rhoConst  = /* Reference density (Boussinesq)  ( kg/m^3 ) */
(PID.TID 0001.0001)                 1.035000000000000E+03
(PID.TID 0001.0001)     ;
(PID.TID 0001.0001) rhoFacC = /* normalized Reference density @ cell-Center (-) */
(PID.TID 0001.0001)    15 @  1.000000000000000E+00              /* K =  1: 15 */
(PID.TID 0001.0001)     ;
(PID.TID 0001.0001) rhoFacF = /* normalized Reference density @ W-Interface (-) */
(PID.TID 0001.0001)    16 @  1.000000000000000E+00              /* K =  1: 16 */
(PID.TID 0001.0001)     ;
(PID.TID 0001.0001) rhoConstFresh = /* Fresh-water reference density ( kg/m^3 ) */
(PID.TID 0001.0001)                 1.000000000000000E+03
(PID.TID 0001.0001)     ;
(PID.TID 0001.0001) gravity =   /* Gravitational acceleration ( m/s^2 ) */
(PID.TID 0001.0001)                 9.810000000000000E+00
(PID.TID 0001.0001)     ;
(PID.TID 0001.0001) gBaro =   /* Barotropic gravity ( m/s^2 ) */
(PID.TID 0001.0001)                 9.810000000000000E+00
(PID.TID 0001.0001)     ;
(PID.TID 0001.0001) gravFacC = /* gravity factor (vs surf.) @ cell-Center (-) */
(PID.TID 0001.0001)    15 @  1.000000000000000E+00              /* K =  1: 15 */
(PID.TID 0001.0001)     ;
(PID.TID 0001.0001) gravFacF = /* gravity factor (vs surf.) @ W-Interface (-) */
(PID.TID 0001.0001)    16 @  1.000000000000000E+00              /* K =  1: 16 */
(PID.TID 0001.0001)     ;
(PID.TID 0001.0001) rotationPeriod =   /* Rotation Period ( s ) */
(PID.TID 0001.0001)                 8.616400000000000E+04
(PID.TID 0001.0001)     ;
(PID.TID 0001.0001) omega =   /* Angular velocity ( rad/s ) */
(PID.TID 0001.0001)                 7.292123516990375E-05
(PID.TID 0001.0001)     ;
(PID.TID 0001.0001) f0 =   /* Reference coriolis parameter ( 1/s ) */
(PID.TID 0001.0001)                 1.000000000000000E-04
(PID.TID 0001.0001)     ;
(PID.TID 0001.0001) beta =   /* Beta ( 1/(m.s) ) */
(PID.TID 0001.0001)                 9.999999999999999E-12
(PID.TID 0001.0001)     ;
(PID.TID 0001.0001) fPrime =   /* Second coriolis parameter ( 1/s ) */
(PID.TID 0001.0001)                 0.000000000000000E+00
(PID.TID 0001.0001)     ;
(PID.TID 0001.0001) rigidLid =   /* Rigid lid on/off flag */
(PID.TID 0001.0001)                   F
(PID.TID 0001.0001)     ;
(PID.TID 0001.0001) implicitFreeSurface =   /* Implicit free surface on/off flag */
(PID.TID 0001.0001)                   T
(PID.TID 0001.0001)     ;
(PID.TID 0001.0001) freeSurfFac =   /* Implicit free surface factor */
(PID.TID 0001.0001)                 1.000000000000000E+00
(PID.TID 0001.0001)     ;
(PID.TID 0001.0001) implicSurfPress =  /* Surface Pressure implicit factor (0-1)*/
(PID.TID 0001.0001)                 1.000000000000000E+00
(PID.TID 0001.0001)     ;
(PID.TID 0001.0001) implicDiv2Dflow =  /* Barot. Flow Div. implicit factor (0-1)*/
(PID.TID 0001.0001)                 1.000000000000000E+00
(PID.TID 0001.0001)     ;
(PID.TID 0001.0001) uniformLin_PhiSurf = /* use uniform Bo_surf on/off flag*/
(PID.TID 0001.0001)                   T
(PID.TID 0001.0001)     ;
(PID.TID 0001.0001) uniformFreeSurfLev = /* free-surface level-index is uniform */
(PID.TID 0001.0001)                   T
(PID.TID 0001.0001)     ;
(PID.TID 0001.0001) hFacMin =   /* minimum partial cell factor (hFac) */
(PID.TID 0001.0001)                 1.000000000000000E-01
(PID.TID 0001.0001)     ;
(PID.TID 0001.0001) hFacMinDr = /* minimum partial cell thickness ( m) */
(PID.TID 0001.0001)                 2.000000000000000E+01
(PID.TID 0001.0001)     ;
(PID.TID 0001.0001) exactConserv =  /* Exact Volume Conservation on/off flag*/
(PID.TID 0001.0001)                   T
(PID.TID 0001.0001)     ;
(PID.TID 0001.0001) linFSConserveTr = /* Tracer correction for Lin Free Surface on/off flag*/
(PID.TID 0001.0001)                   F
(PID.TID 0001.0001)     ;
(PID.TID 0001.0001) nonlinFreeSurf = /* Non-linear Free Surf. options (-1,0,1,2,3)*/
(PID.TID 0001.0001)                       4
(PID.TID 0001.0001)      -1,0= Off ; 1,2,3= On, 2=+rescale gU,gV, 3=+update cg2d solv.
(PID.TID 0001.0001)     ;
(PID.TID 0001.0001) hFacInf =   /* lower threshold for hFac (nonlinFreeSurf only)*/
(PID.TID 0001.0001)                 2.000000000000000E-01
(PID.TID 0001.0001)     ;
(PID.TID 0001.0001) hFacSup =   /* upper threshold for hFac (nonlinFreeSurf only)*/
(PID.TID 0001.0001)                 2.000000000000000E+00
(PID.TID 0001.0001)     ;
(PID.TID 0001.0001) select_rStar = /* r* Vertical coord. options (=0 r coord.; >0 uses r*)*/
(PID.TID 0001.0001)                       2
(PID.TID 0001.0001)     ;
(PID.TID 0001.0001) useRealFreshWaterFlux = /* Real Fresh Water Flux on/off flag*/
(PID.TID 0001.0001)                   T
(PID.TID 0001.0001)     ;
(PID.TID 0001.0001) temp_EvPrRn = /* Temp. of Evap/Prec/R (UNSET=use local T)(oC)*/
(PID.TID 0001.0001)                 1.234567000000000E+05
(PID.TID 0001.0001)     ;
(PID.TID 0001.0001) salt_EvPrRn = /* Salin. of Evap/Prec/R (UNSET=use local S)(psu)*/
(PID.TID 0001.0001)                 0.000000000000000E+00
(PID.TID 0001.0001)     ;
(PID.TID 0001.0001) selectAddFluid = /* option for mass source/sink of fluid (=0: off) */
(PID.TID 0001.0001)                       0
(PID.TID 0001.0001)     ;
(PID.TID 0001.0001) temp_addMass = /* Temp. of addMass array (UNSET=use local T)(oC)*/
(PID.TID 0001.0001)                 1.234567000000000E+05
(PID.TID 0001.0001)     ;
(PID.TID 0001.0001) salt_addMass = /* Salin. of addMass array (UNSET=use local S)(psu)*/
(PID.TID 0001.0001)                 0.000000000000000E+00
(PID.TID 0001.0001)     ;
(PID.TID 0001.0001) use3Dsolver = /* use 3-D pressure solver on/off flag */
(PID.TID 0001.0001)                   F
(PID.TID 0001.0001)     ;
(PID.TID 0001.0001) nonHydrostatic =  /* Non-Hydrostatic on/off flag */
(PID.TID 0001.0001)                   F
(PID.TID 0001.0001)     ;
(PID.TID 0001.0001) nh_Am2 = /* Non-Hydrostatic terms scaling factor */
(PID.TID 0001.0001)                 1.000000000000000E+00
(PID.TID 0001.0001)     ;
(PID.TID 0001.0001) implicitNHPress = /* Non-Hyd Pressure implicit factor (0-1)*/
(PID.TID 0001.0001)                 1.000000000000000E+00
(PID.TID 0001.0001)     ;
(PID.TID 0001.0001) selectNHfreeSurf = /* Non-Hyd (free-)Surface option */
(PID.TID 0001.0001)                       0
(PID.TID 0001.0001)     ;
(PID.TID 0001.0001) quasiHydrostatic = /* Quasi-Hydrostatic on/off flag */
(PID.TID 0001.0001)                   F
(PID.TID 0001.0001)     ;
(PID.TID 0001.0001) calc_wVelocity = /* vertical velocity calculation on/off flag */
(PID.TID 0001.0001)                   T
(PID.TID 0001.0001)     ;
(PID.TID 0001.0001) momStepping =  /* Momentum equation on/off flag */
(PID.TID 0001.0001)                   T
(PID.TID 0001.0001)     ;
(PID.TID 0001.0001) vectorInvariantMomentum= /* Vector-Invariant Momentum on/off */
(PID.TID 0001.0001)                   T
(PID.TID 0001.0001)     ;
(PID.TID 0001.0001) momAdvection =  /* Momentum advection on/off flag */
(PID.TID 0001.0001)                   T
(PID.TID 0001.0001)     ;
(PID.TID 0001.0001) momViscosity =  /* Momentum viscosity on/off flag */
(PID.TID 0001.0001)                   T
(PID.TID 0001.0001)     ;
(PID.TID 0001.0001) momImplVertAdv= /* Momentum implicit vert. advection on/off*/
(PID.TID 0001.0001)                   F
(PID.TID 0001.0001)     ;
(PID.TID 0001.0001) implicitViscosity = /* Implicit viscosity on/off flag */
(PID.TID 0001.0001)                   F
(PID.TID 0001.0001)     ;
(PID.TID 0001.0001) implBottomFriction= /* Implicit bottom friction on/off flag */
(PID.TID 0001.0001)                   F
(PID.TID 0001.0001)     ;
(PID.TID 0001.0001) metricTerms =  /* metric-Terms on/off flag */
(PID.TID 0001.0001)                   F
(PID.TID 0001.0001)     ;
(PID.TID 0001.0001) useNHMTerms = /* Non-Hydrostatic Metric-Terms on/off */
(PID.TID 0001.0001)                   F
(PID.TID 0001.0001)     ;
(PID.TID 0001.0001) selectCoriMap = /* Coriolis Map options (0,1,2,3)*/
(PID.TID 0001.0001)                       2
(PID.TID 0001.0001)     0= f-Plane ; 1= Beta-Plane ; 2= Spherical ; 3= read from file
(PID.TID 0001.0001)     ;
(PID.TID 0001.0001) use3dCoriolis = /* 3-D Coriolis on/off flag */
(PID.TID 0001.0001)                   F
(PID.TID 0001.0001)     ;
(PID.TID 0001.0001) useCoriolis =  /* Coriolis on/off flag */
(PID.TID 0001.0001)                   T
(PID.TID 0001.0001)     ;
(PID.TID 0001.0001) useCDscheme =  /* CD scheme on/off flag */
(PID.TID 0001.0001)                   F
(PID.TID 0001.0001)     ;
(PID.TID 0001.0001) useEnergyConservingCoriolis= /* Flx-Form Coriolis scheme flag */
(PID.TID 0001.0001)                   F
(PID.TID 0001.0001)     ;
(PID.TID 0001.0001) useJamartWetPoints= /* Coriolis WetPoints method flag */
(PID.TID 0001.0001)                   F
(PID.TID 0001.0001)     ;
(PID.TID 0001.0001) useJamartMomAdv= /* V.I Non-linear terms Jamart flag */
(PID.TID 0001.0001)                   F
(PID.TID 0001.0001)     ;
(PID.TID 0001.0001) useAbsVorticity= /* V.I Works with f+zeta in Coriolis */
(PID.TID 0001.0001)                   F
(PID.TID 0001.0001)     ;
(PID.TID 0001.0001) selectVortScheme= /* V.I Scheme selector for Vorticity-Term */
(PID.TID 0001.0001)                       1
(PID.TID 0001.0001)    = 0 : enstrophy (Shallow-Water Eq.) conserving scheme by Sadourny, JAS 75
(PID.TID 0001.0001)    = 1 : same as 0 with modified hFac
(PID.TID 0001.0001)    = 2 : energy conserving scheme (used by Sadourny in JAS 75 paper)
(PID.TID 0001.0001)    = 3 : energy (general) and enstrophy (2D, nonDiv.) conserving scheme
(PID.TID 0001.0001)          from Sadourny (Burridge & Haseler, ECMWF Rep.4, 1977)
(PID.TID 0001.0001)     ;
(PID.TID 0001.0001) upwindVorticity= /* V.I Upwind bias vorticity flag */
(PID.TID 0001.0001)                   F
(PID.TID 0001.0001)     ;
(PID.TID 0001.0001) highOrderVorticity= /* V.I High order vort. advect. flag */
(PID.TID 0001.0001)                   F
(PID.TID 0001.0001)     ;
(PID.TID 0001.0001) upwindShear= /* V.I Upwind vertical Shear advection flag */
(PID.TID 0001.0001)                   F
(PID.TID 0001.0001)     ;
(PID.TID 0001.0001) selectKEscheme= /* V.I Kinetic Energy scheme selector */
(PID.TID 0001.0001)                       0
(PID.TID 0001.0001)     ;
(PID.TID 0001.0001) momForcing =  /* Momentum forcing on/off flag */
(PID.TID 0001.0001)                   T
(PID.TID 0001.0001)     ;
(PID.TID 0001.0001) momPressureForcing =  /* Momentum pressure term on/off flag */
(PID.TID 0001.0001)                   T
(PID.TID 0001.0001)     ;
(PID.TID 0001.0001) implicitIntGravWave= /* Implicit Internal Gravity Wave flag */
(PID.TID 0001.0001)                   F
(PID.TID 0001.0001)     ;
(PID.TID 0001.0001) staggerTimeStep =    /* Stagger time stepping on/off flag */
(PID.TID 0001.0001)                   T
(PID.TID 0001.0001)     ;
(PID.TID 0001.0001) doResetHFactors = /* reset thickness factors @ each time-step */
(PID.TID 0001.0001)                   F
(PID.TID 0001.0001)     ;
(PID.TID 0001.0001) multiDimAdvection =  /* enable/disable Multi-Dim Advection */
(PID.TID 0001.0001)                   T
(PID.TID 0001.0001)     ;
(PID.TID 0001.0001) useMultiDimAdvec =   /* Multi-Dim Advection is/is-not used */
(PID.TID 0001.0001)                   F
(PID.TID 0001.0001)     ;
(PID.TID 0001.0001) implicitDiffusion = /* Implicit Diffusion on/off flag */
(PID.TID 0001.0001)                   T
(PID.TID 0001.0001)     ;
(PID.TID 0001.0001) tempStepping =  /* Temperature equation on/off flag */
(PID.TID 0001.0001)                   T
(PID.TID 0001.0001)     ;
(PID.TID 0001.0001) tempAdvection = /* Temperature advection on/off flag */
(PID.TID 0001.0001)                   T
(PID.TID 0001.0001)     ;
(PID.TID 0001.0001) tempImplVertAdv = /* Temp. implicit vert. advection on/off */
(PID.TID 0001.0001)                   F
(PID.TID 0001.0001)     ;
(PID.TID 0001.0001) tempForcing  =  /* Temperature forcing on/off flag */
(PID.TID 0001.0001)                   T
(PID.TID 0001.0001)     ;
(PID.TID 0001.0001) balanceQnet  =  /* balance net heat-flux on/off flag */
(PID.TID 0001.0001)                   F
(PID.TID 0001.0001)     ;
(PID.TID 0001.0001) doThetaClimRelax = /* apply SST relaxation on/off flag */
(PID.TID 0001.0001)                   F
(PID.TID 0001.0001)     ;
(PID.TID 0001.0001) balanceThetaClimRelax= /* balance SST relaxation on/off flag */
(PID.TID 0001.0001)                   F
(PID.TID 0001.0001)     ;
(PID.TID 0001.0001) tempIsActiveTr = /* Temp. is a dynamically Active Tracer */
(PID.TID 0001.0001)                   T
(PID.TID 0001.0001)     ;
(PID.TID 0001.0001) saltStepping =  /* Salinity equation on/off flag */
(PID.TID 0001.0001)                   T
(PID.TID 0001.0001)     ;
(PID.TID 0001.0001) saltAdvection = /* Salinity advection on/off flag */
(PID.TID 0001.0001)                   T
(PID.TID 0001.0001)     ;
(PID.TID 0001.0001) saltImplVertAdv = /* Sali. implicit vert. advection on/off */
(PID.TID 0001.0001)                   F
(PID.TID 0001.0001)     ;
(PID.TID 0001.0001) saltForcing  =  /* Salinity forcing on/off flag */
(PID.TID 0001.0001)                   T
(PID.TID 0001.0001)     ;
(PID.TID 0001.0001) balanceEmPmR =  /* balance net fresh-water flux on/off flag */
(PID.TID 0001.0001)                   F
(PID.TID 0001.0001)     ;
(PID.TID 0001.0001) doSaltClimRelax = /* apply SSS relaxation on/off flag */
(PID.TID 0001.0001)                   F
(PID.TID 0001.0001)     ;
(PID.TID 0001.0001) balanceSaltClimRelax= /* balance SSS relaxation on/off flag */
(PID.TID 0001.0001)                   F
(PID.TID 0001.0001)     ;
(PID.TID 0001.0001) saltIsActiveTr = /* Salt  is a dynamically Active Tracer */
(PID.TID 0001.0001)                   T
(PID.TID 0001.0001)     ;
(PID.TID 0001.0001)  readBinaryPrec = /* Precision used for reading binary files */
(PID.TID 0001.0001)                      64
(PID.TID 0001.0001)     ;
(PID.TID 0001.0001) writeBinaryPrec = /* Precision used for writing binary files */
(PID.TID 0001.0001)                      32
(PID.TID 0001.0001)     ;
(PID.TID 0001.0001)  globalFiles = /* write "global" (=not per tile) files */
(PID.TID 0001.0001)                   F
(PID.TID 0001.0001)     ;
(PID.TID 0001.0001)  useSingleCpuIO = /* only master MPI process does I/O */
(PID.TID 0001.0001)                   T
(PID.TID 0001.0001)     ;
(PID.TID 0001.0001)  useSingleCpuInput = /* only master process reads input */
(PID.TID 0001.0001)                   T
(PID.TID 0001.0001)     ;
(PID.TID 0001.0001) /* debLev[*]  : level of debug & auxiliary message printing */
(PID.TID 0001.0001) debLevZero =  0 ; /* level of disabled aux. msg printing */
(PID.TID 0001.0001)    debLevA =  1 ; /* level of minimum  aux. msg printing */
(PID.TID 0001.0001)    debLevB =  2 ; /* level of low aux. print (report read-file opening)*/
(PID.TID 0001.0001)    debLevC =  3 ; /* level of moderate debug prt (most pkgs debug msg) */
(PID.TID 0001.0001)    debLevD =  4 ; /* level of enhanced debug prt (add DEBUG_STATS prt) */
(PID.TID 0001.0001)    debLevE =  5 ; /* level of extensive debug printing */
(PID.TID 0001.0001) debugLevel =  /* select debug printing level */
(PID.TID 0001.0001)                       2
(PID.TID 0001.0001)     ;
(PID.TID 0001.0001) //
(PID.TID 0001.0001) // Elliptic solver(s) paramters ( PARM02 in namelist )
(PID.TID 0001.0001) //
(PID.TID 0001.0001) cg2dMaxIters =   /* Upper limit on 2d con. grad iterations  */
(PID.TID 0001.0001)                     150
(PID.TID 0001.0001)     ;
(PID.TID 0001.0001) cg2dChkResFreq =   /* 2d con. grad convergence test frequency */
(PID.TID 0001.0001)                       1
(PID.TID 0001.0001)     ;
(PID.TID 0001.0001) cg2dUseMinResSol= /* use cg2d last-iter(=0) / min-resid.(=1) solution */
(PID.TID 0001.0001)                       0
(PID.TID 0001.0001)     ;
(PID.TID 0001.0001) cg2dTargetResidual =   /* 2d con. grad target residual  */
(PID.TID 0001.0001)                 1.000000000000000E-07
(PID.TID 0001.0001)     ;
(PID.TID 0001.0001) cg2dTargetResWunit =   /* CG2d target residual [W units] */
(PID.TID 0001.0001)                -1.000000000000000E+00
(PID.TID 0001.0001)     ;
(PID.TID 0001.0001) cg2dPreCondFreq =   /* Freq. for updating cg2d preconditioner */
(PID.TID 0001.0001)                       1
(PID.TID 0001.0001)     ;
(PID.TID 0001.0001) useSRCGSolver =  /* use single reduction CG solver(s) */
(PID.TID 0001.0001)                   F
(PID.TID 0001.0001)     ;
(PID.TID 0001.0001) printResidualFreq = /* Freq. for printing CG residual */
(PID.TID 0001.0001)                       0
(PID.TID 0001.0001)     ;
(PID.TID 0001.0001) //
(PID.TID 0001.0001) // Time stepping paramters ( PARM03 in namelist )
(PID.TID 0001.0001) //
(PID.TID 0001.0001) deltaTMom =   /* Momentum equation timestep ( s ) */
(PID.TID 0001.0001)                 9.000000000000000E+02
(PID.TID 0001.0001)     ;
(PID.TID 0001.0001) deltaTFreeSurf = /* FreeSurface equation timestep ( s ) */
(PID.TID 0001.0001)                 9.000000000000000E+02
(PID.TID 0001.0001)     ;
(PID.TID 0001.0001) dTtracerLev =  /* Tracer equation timestep ( s ) */
(PID.TID 0001.0001)    15 @  9.000000000000000E+02              /* K =  1: 15 */
(PID.TID 0001.0001)     ;
(PID.TID 0001.0001) deltaTClock  =   /* Model clock timestep ( s ) */
(PID.TID 0001.0001)                 9.000000000000000E+02
(PID.TID 0001.0001)     ;
(PID.TID 0001.0001) cAdjFreq =   /* Convective adjustment interval ( s ) */
(PID.TID 0001.0001)                 0.000000000000000E+00
(PID.TID 0001.0001)     ;
(PID.TID 0001.0001) momForcingOutAB = /* =1: take Momentum Forcing out of Adams-Bash. stepping */
(PID.TID 0001.0001)                       0
(PID.TID 0001.0001)     ;
(PID.TID 0001.0001) tracForcingOutAB = /* =1: take T,S,pTr Forcing out of Adams-Bash. stepping */
(PID.TID 0001.0001)                       1
(PID.TID 0001.0001)     ;
(PID.TID 0001.0001) momDissip_In_AB = /* put Dissipation Tendency in Adams-Bash. stepping */
(PID.TID 0001.0001)                   T
(PID.TID 0001.0001)     ;
(PID.TID 0001.0001) doAB_onGtGs = /* apply AB on Tendencies (rather than on T,S)*/
(PID.TID 0001.0001)                   T
(PID.TID 0001.0001)     ;
(PID.TID 0001.0001) abEps =   /* Adams-Bashforth-2 stabilizing weight */
(PID.TID 0001.0001)                 1.000000000000000E-01
(PID.TID 0001.0001)     ;
(PID.TID 0001.0001) applyExchUV_early = /* Apply EXCH to U,V earlier in time-step */
(PID.TID 0001.0001)                   F
(PID.TID 0001.0001)     ;
(PID.TID 0001.0001) pickupStrictlyMatch= /* stop if pickup do not strictly match */
(PID.TID 0001.0001)                   T
(PID.TID 0001.0001)     ;
(PID.TID 0001.0001) nIter0   =   /* Run starting timestep number */
(PID.TID 0001.0001)                   72000
(PID.TID 0001.0001)     ;
(PID.TID 0001.0001) nTimeSteps = /* Number of timesteps */
(PID.TID 0001.0001)                   99999
(PID.TID 0001.0001)     ;
(PID.TID 0001.0001) nEndIter =   /* Run ending timestep number */
(PID.TID 0001.0001)                  171999
(PID.TID 0001.0001)     ;
(PID.TID 0001.0001) baseTime =   /* Model base time ( s ) */
(PID.TID 0001.0001)                 0.000000000000000E+00
(PID.TID 0001.0001)     ;
(PID.TID 0001.0001) startTime =  /* Run start time ( s ) */
(PID.TID 0001.0001)                 6.480000000000000E+07
(PID.TID 0001.0001)     ;
(PID.TID 0001.0001) endTime  =   /* Integration ending time ( s ) */
(PID.TID 0001.0001)                 1.547991000000000E+08
(PID.TID 0001.0001)     ;
(PID.TID 0001.0001) pChkPtFreq = /* Permanent restart/pickup file interval ( s ) */
(PID.TID 0001.0001)                 0.000000000000000E+00
(PID.TID 0001.0001)     ;
(PID.TID 0001.0001) chkPtFreq  = /* Rolling restart/pickup file interval ( s ) */
(PID.TID 0001.0001)                 0.000000000000000E+00
(PID.TID 0001.0001)     ;
(PID.TID 0001.0001) pickup_write_mdsio =   /* Model IO flag. */
(PID.TID 0001.0001)                   T
(PID.TID 0001.0001)     ;
(PID.TID 0001.0001) pickup_read_mdsio =   /* Model IO flag. */
(PID.TID 0001.0001)                   T
(PID.TID 0001.0001)     ;
(PID.TID 0001.0001) pickup_write_immed =   /* Model IO flag. */
(PID.TID 0001.0001)                   F
(PID.TID 0001.0001)     ;
(PID.TID 0001.0001) writePickupAtEnd =   /* Model IO flag. */
(PID.TID 0001.0001)                   T
(PID.TID 0001.0001)     ;
(PID.TID 0001.0001) dumpFreq =   /* Model state write out interval ( s ). */
(PID.TID 0001.0001)                 0.000000000000000E+00
(PID.TID 0001.0001)     ;
(PID.TID 0001.0001) dumpInitAndLast= /* write out Initial & Last iter. model state */
(PID.TID 0001.0001)                   T
(PID.TID 0001.0001)     ;
(PID.TID 0001.0001) snapshot_mdsio =   /* Model IO flag. */
(PID.TID 0001.0001)                   T
(PID.TID 0001.0001)     ;
(PID.TID 0001.0001) monitorFreq =   /* Monitor output interval ( s ). */
(PID.TID 0001.0001)                 1.000000000000000E+00
(PID.TID 0001.0001)     ;
(PID.TID 0001.0001) monitorSelect = /* select group of variables to monitor */
(PID.TID 0001.0001)                       3
(PID.TID 0001.0001)     ;
(PID.TID 0001.0001) monitor_stdio =   /* Model IO flag. */
(PID.TID 0001.0001)                   T
(PID.TID 0001.0001)     ;
(PID.TID 0001.0001) externForcingPeriod =   /* forcing period (s) */
(PID.TID 0001.0001)                 0.000000000000000E+00
(PID.TID 0001.0001)     ;
(PID.TID 0001.0001) externForcingCycle =   /* period of the cyle (s). */
(PID.TID 0001.0001)                 0.000000000000000E+00
(PID.TID 0001.0001)     ;
(PID.TID 0001.0001) tauThetaClimRelax =   /* relaxation time scale (s) */
(PID.TID 0001.0001)                 0.000000000000000E+00
(PID.TID 0001.0001)     ;
(PID.TID 0001.0001) tauSaltClimRelax =   /* relaxation time scale (s) */
(PID.TID 0001.0001)                 0.000000000000000E+00
(PID.TID 0001.0001)     ;
(PID.TID 0001.0001) latBandClimRelax =   /* max. Lat. where relaxation */
(PID.TID 0001.0001)                 1.800000000000000E+02
(PID.TID 0001.0001)     ;
(PID.TID 0001.0001) //
(PID.TID 0001.0001) // Gridding paramters ( PARM04 in namelist )
(PID.TID 0001.0001) //
(PID.TID 0001.0001) usingCartesianGrid = /* Cartesian coordinates flag ( True/False ) */
(PID.TID 0001.0001)                   F
(PID.TID 0001.0001)     ;
(PID.TID 0001.0001) usingCylindricalGrid = /* Cylindrical coordinates flag ( True/False ) */
(PID.TID 0001.0001)                   F
(PID.TID 0001.0001)     ;
(PID.TID 0001.0001) usingSphericalPolarGrid = /* Spherical coordinates flag ( True/False ) */
(PID.TID 0001.0001)                   F
(PID.TID 0001.0001)     ;
(PID.TID 0001.0001) usingCurvilinearGrid = /* Curvilinear coordinates flag ( True/False ) */
(PID.TID 0001.0001)                   T
(PID.TID 0001.0001)     ;
(PID.TID 0001.0001) selectSigmaCoord = /* Hybrid-Sigma Vert. Coordinate option */
(PID.TID 0001.0001)                       0
(PID.TID 0001.0001)     ;
(PID.TID 0001.0001) rSigmaBnd = /* r/sigma transition ( units of r ==  m ) */
(PID.TID 0001.0001)                 1.234567000000000E+05
(PID.TID 0001.0001)     ;
(PID.TID 0001.0001) rkSign =   /* index orientation relative to vertical coordinate */
(PID.TID 0001.0001)                -1.000000000000000E+00
(PID.TID 0001.0001)     ;
(PID.TID 0001.0001) gravitySign = /* gravity orientation relative to vertical coordinate */
(PID.TID 0001.0001)                -1.000000000000000E+00
(PID.TID 0001.0001)     ;
(PID.TID 0001.0001) seaLev_Z =  /* reference height of sea-level [m] */
(PID.TID 0001.0001)                 0.000000000000000E+00
(PID.TID 0001.0001)     ;
(PID.TID 0001.0001) top_Pres =  /* reference pressure at the top [Pa] */
(PID.TID 0001.0001)                 0.000000000000000E+00
(PID.TID 0001.0001)     ;
(PID.TID 0001.0001) mass2rUnit = /* convert mass per unit area [kg/m2] to r-units [m] */
(PID.TID 0001.0001)                 9.661835748792270E-04
(PID.TID 0001.0001)     ;
(PID.TID 0001.0001) rUnit2mass = /* convert r-units [m] to mass per unit area [kg/m2] */
(PID.TID 0001.0001)                 1.035000000000000E+03
(PID.TID 0001.0001)     ;
(PID.TID 0001.0001) drC =   /* C spacing ( units of r ) */
(PID.TID 0001.0001)                 2.500000000000000E+01,      /* K =  1 */
(PID.TID 0001.0001)                 6.000000000000000E+01,      /* K =  2 */
(PID.TID 0001.0001)                 8.500000000000000E+01,      /* K =  3 */
(PID.TID 0001.0001)                 1.200000000000000E+02,      /* K =  4 */
(PID.TID 0001.0001)                 1.650000000000000E+02,      /* K =  5 */
(PID.TID 0001.0001)                 2.150000000000000E+02,      /* K =  6 */
(PID.TID 0001.0001)                 2.650000000000000E+02,      /* K =  7 */
(PID.TID 0001.0001)                 3.150000000000000E+02,      /* K =  8 */
(PID.TID 0001.0001)                 3.650000000000000E+02,      /* K =  9 */
(PID.TID 0001.0001)                 4.150000000000000E+02,      /* K = 10 */
(PID.TID 0001.0001)                 4.650000000000000E+02,      /* K = 11 */
(PID.TID 0001.0001)                 5.150000000000000E+02,      /* K = 12 */
(PID.TID 0001.0001)                 5.650000000000000E+02,      /* K = 13 */
(PID.TID 0001.0001)                 6.150000000000000E+02,      /* K = 14 */
(PID.TID 0001.0001)                 6.650000000000000E+02,      /* K = 15 */
(PID.TID 0001.0001)                 3.450000000000000E+02       /* K = 16 */
(PID.TID 0001.0001)     ;
(PID.TID 0001.0001) drF =   /* W spacing ( units of r ) */
(PID.TID 0001.0001)                 5.000000000000000E+01,      /* K =  1 */
(PID.TID 0001.0001)                 7.000000000000000E+01,      /* K =  2 */
(PID.TID 0001.0001)                 1.000000000000000E+02,      /* K =  3 */
(PID.TID 0001.0001)                 1.400000000000000E+02,      /* K =  4 */
(PID.TID 0001.0001)                 1.900000000000000E+02,      /* K =  5 */
(PID.TID 0001.0001)                 2.400000000000000E+02,      /* K =  6 */
(PID.TID 0001.0001)                 2.900000000000000E+02,      /* K =  7 */
(PID.TID 0001.0001)                 3.400000000000000E+02,      /* K =  8 */
(PID.TID 0001.0001)                 3.900000000000000E+02,      /* K =  9 */
(PID.TID 0001.0001)                 4.400000000000000E+02,      /* K = 10 */
(PID.TID 0001.0001)                 4.900000000000000E+02,      /* K = 11 */
(PID.TID 0001.0001)                 5.400000000000000E+02,      /* K = 12 */
(PID.TID 0001.0001)                 5.900000000000000E+02,      /* K = 13 */
(PID.TID 0001.0001)                 6.400000000000000E+02,      /* K = 14 */
(PID.TID 0001.0001)                 6.900000000000000E+02       /* K = 15 */
(PID.TID 0001.0001)     ;
(PID.TID 0001.0001) radius_fromHorizGrid = /* sphere Radius of input horiz. grid */
(PID.TID 0001.0001)                 6.370000000000000E+06
(PID.TID 0001.0001)     ;
(PID.TID 0001.0001) rSphere =  /* Radius ( ignored - cartesian, m - spherical ) */
(PID.TID 0001.0001)                 6.370000000000000E+06
(PID.TID 0001.0001)     ;
(PID.TID 0001.0001) deepAtmosphere = /* Deep/Shallow Atmosphere flag (True/False) */
(PID.TID 0001.0001)                   F
(PID.TID 0001.0001)     ;
(PID.TID 0001.0001) xC =  /* xC(:,1,:,1) : P-point X coord ( deg. or m if cartesian) */
(PID.TID 0001.0001)                 4.560478005239464E+01,      /* I =  1 */
(PID.TID 0001.0001)                 4.704358727724117E+01,      /* I =  2 */
(PID.TID 0001.0001)                 4.877944446611043E+01,      /* I =  3 */
(PID.TID 0001.0001)                 5.076553711512697E+01,      /* I =  4 */
(PID.TID 0001.0001)                 5.297414841317801E+01,      /* I =  5 */
(PID.TID 0001.0001)                 5.538820632905850E+01,      /* I =  6 */
(PID.TID 0001.0001)                 5.799565430958209E+01,      /* I =  7 */
(PID.TID 0001.0001)                 6.078644034367325E+01,      /* I =  8 */
(PID.TID 0001.0001)                 6.375067776971711E+01,      /* I =  9 */
(PID.TID 0001.0001)                 6.687738749573657E+01,      /* I = 10 */
(PID.TID 0001.0001)                 7.015359282872943E+01,      /* I = 11 */
(PID.TID 0001.0001)                 7.356369199444866E+01,      /* I = 12 */
(PID.TID 0001.0001)                 7.708910193697932E+01,      /* I = 13 */
(PID.TID 0001.0001)                 8.070819219728060E+01,      /* I = 14 */
(PID.TID 0001.0001)                 8.439652466417766E+01,      /* I = 15 */
(PID.TID 0001.0001)                 8.812739148696656E+01,      /* I = 16 */
(PID.TID 0001.0001)                 9.187260851303344E+01,      /* I = 17 */
(PID.TID 0001.0001)                 9.560347533582234E+01,      /* I = 18 */
(PID.TID 0001.0001)                 9.929180780271940E+01,      /* I = 19 */
(PID.TID 0001.0001)                 1.029108980630207E+02,      /* I = 20 */
(PID.TID 0001.0001)                 1.064363080055513E+02,      /* I = 21 */
(PID.TID 0001.0001)                 1.098464071712706E+02,      /* I = 22 */
(PID.TID 0001.0001)                 1.131226125042634E+02,      /* I = 23 */
(PID.TID 0001.0001)                 1.162493222302829E+02,      /* I = 24 */
(PID.TID 0001.0001)                 1.192135596563268E+02,      /* I = 25 */
(PID.TID 0001.0001)                 1.220043456904179E+02,      /* I = 26 */
(PID.TID 0001.0001)                 1.246117936709415E+02,      /* I = 27 */
(PID.TID 0001.0001)                 1.270258515868220E+02,      /* I = 28 */
(PID.TID 0001.0001)                 1.292344628848730E+02,      /* I = 29 */
(PID.TID 0001.0001)                 1.312205555338896E+02,      /* I = 30 */
(PID.TID 0001.0001)                 1.329564127227588E+02,      /* I = 31 */
(PID.TID 0001.0001)                 1.343952199476053E+02       /* I = 32 */
(PID.TID 0001.0001)     ;
(PID.TID 0001.0001) yC =  /* yC(1,:,1,:) : P-point Y coord ( deg. or m if cartesian) */
(PID.TID 0001.0001)                -3.497677942598243E+01,      /* J =  1 */
(PID.TID 0001.0001)                -3.374005967394886E+01,      /* J =  2 */
(PID.TID 0001.0001)                -3.220655175667454E+01,      /* J =  3 */
(PID.TID 0001.0001)                -3.045756348838641E+01,      /* J =  4 */
(PID.TID 0001.0001)                -2.853728129852918E+01,      /* J =  5 */
(PID.TID 0001.0001)                -2.647426640173173E+01,      /* J =  6 */
(PID.TID 0001.0001)                -2.428936657094636E+01,      /* J =  7 */
(PID.TID 0001.0001)                -2.199915808312262E+01,      /* J =  8 */
(PID.TID 0001.0001)                -1.961768597440146E+01,      /* J =  9 */
(PID.TID 0001.0001)                -1.715743888281371E+01,      /* J = 10 */
(PID.TID 0001.0001)                -1.462993396899330E+01,      /* J = 11 */
(PID.TID 0001.0001)                -1.204608340464756E+01,      /* J = 12 */
(PID.TID 0001.0001)                -9.416429130284818E+00,      /* J = 13 */
(PID.TID 0001.0001)                -6.751293662992216E+00,      /* J = 14 */
(PID.TID 0001.0001)                -4.060875511835959E+00,      /* J = 15 */
(PID.TID 0001.0001)                -1.355307764409121E+00,      /* J = 16 */
(PID.TID 0001.0001)                 1.355307764409121E+00,      /* J = 17 */
(PID.TID 0001.0001)                 4.060875511835959E+00,      /* J = 18 */
(PID.TID 0001.0001)                 6.751293662992216E+00,      /* J = 19 */
(PID.TID 0001.0001)                 9.416429130284818E+00,      /* J = 20 */
(PID.TID 0001.0001)                 1.204608340464756E+01,      /* J = 21 */
(PID.TID 0001.0001)                 1.462993396899330E+01,      /* J = 22 */
(PID.TID 0001.0001)                 1.715743888281371E+01,      /* J = 23 */
(PID.TID 0001.0001)                 1.961768597440146E+01,      /* J = 24 */
(PID.TID 0001.0001)                 2.199915808312262E+01,      /* J = 25 */
(PID.TID 0001.0001)                 2.428936657094636E+01,      /* J = 26 */
(PID.TID 0001.0001)                 2.647426640173173E+01,      /* J = 27 */
(PID.TID 0001.0001)                 2.853728129852918E+01,      /* J = 28 */
(PID.TID 0001.0001)                 3.045756348838641E+01,      /* J = 29 */
(PID.TID 0001.0001)                 3.220655175667454E+01,      /* J = 30 */
(PID.TID 0001.0001)                 3.374005967394886E+01,      /* J = 31 */
(PID.TID 0001.0001)                 3.497677942598243E+01       /* J = 32 */
(PID.TID 0001.0001)     ;
(PID.TID 0001.0001) rcoord = /* P-point R coordinate (  units of r ) */
(PID.TID 0001.0001)                -2.500000000000000E+01,      /* K =  1 */
(PID.TID 0001.0001)                -8.500000000000000E+01,      /* K =  2 */
(PID.TID 0001.0001)                -1.700000000000000E+02,      /* K =  3 */
(PID.TID 0001.0001)                -2.900000000000000E+02,      /* K =  4 */
(PID.TID 0001.0001)                -4.550000000000000E+02,      /* K =  5 */
(PID.TID 0001.0001)                -6.700000000000000E+02,      /* K =  6 */
(PID.TID 0001.0001)                -9.350000000000000E+02,      /* K =  7 */
(PID.TID 0001.0001)                -1.250000000000000E+03,      /* K =  8 */
(PID.TID 0001.0001)                -1.615000000000000E+03,      /* K =  9 */
(PID.TID 0001.0001)                -2.030000000000000E+03,      /* K = 10 */
(PID.TID 0001.0001)                -2.495000000000000E+03,      /* K = 11 */
(PID.TID 0001.0001)                -3.010000000000000E+03,      /* K = 12 */
(PID.TID 0001.0001)                -3.575000000000000E+03,      /* K = 13 */
(PID.TID 0001.0001)                -4.190000000000000E+03,      /* K = 14 */
(PID.TID 0001.0001)                -4.855000000000000E+03       /* K = 15 */
(PID.TID 0001.0001)     ;
(PID.TID 0001.0001) rF =   /* W-Interf. R coordinate (  units of r ) */
(PID.TID 0001.0001)                 0.000000000000000E+00,      /* K =  1 */
(PID.TID 0001.0001)                -5.000000000000000E+01,      /* K =  2 */
(PID.TID 0001.0001)                -1.200000000000000E+02,      /* K =  3 */
(PID.TID 0001.0001)                -2.200000000000000E+02,      /* K =  4 */
(PID.TID 0001.0001)                -3.600000000000000E+02,      /* K =  5 */
(PID.TID 0001.0001)                -5.500000000000000E+02,      /* K =  6 */
(PID.TID 0001.0001)                -7.900000000000000E+02,      /* K =  7 */
(PID.TID 0001.0001)                -1.080000000000000E+03,      /* K =  8 */
(PID.TID 0001.0001)                -1.420000000000000E+03,      /* K =  9 */
(PID.TID 0001.0001)                -1.810000000000000E+03,      /* K = 10 */
(PID.TID 0001.0001)                -2.250000000000000E+03,      /* K = 11 */
(PID.TID 0001.0001)                -2.740000000000000E+03,      /* K = 12 */
(PID.TID 0001.0001)                -3.280000000000000E+03,      /* K = 13 */
(PID.TID 0001.0001)                -3.870000000000000E+03,      /* K = 14 */
(PID.TID 0001.0001)                -4.510000000000000E+03,      /* K = 15 */
(PID.TID 0001.0001)                -5.200000000000000E+03       /* K = 16 */
(PID.TID 0001.0001)     ;
(PID.TID 0001.0001) deepFacC = /* deep-model grid factor @ cell-Center (-) */
(PID.TID 0001.0001)    15 @  1.000000000000000E+00              /* K =  1: 15 */
(PID.TID 0001.0001)     ;
(PID.TID 0001.0001) deepFacF = /* deep-model grid factor @ W-Interface (-) */
(PID.TID 0001.0001)    16 @  1.000000000000000E+00              /* K =  1: 16 */
(PID.TID 0001.0001)     ;
(PID.TID 0001.0001) rVel2wUnit = /* convert units: rVel -> wSpeed (=1 if z-coord)*/
(PID.TID 0001.0001)    16 @  1.000000000000000E+00              /* K =  1: 16 */
(PID.TID 0001.0001)     ;
(PID.TID 0001.0001) wUnit2rVel = /* convert units: wSpeed -> rVel (=1 if z-coord)*/
(PID.TID 0001.0001)    16 @  1.000000000000000E+00              /* K =  1: 16 */
(PID.TID 0001.0001)     ;
(PID.TID 0001.0001) dBdrRef = /* Vertical grad. of reference buoyancy [(m/s/r)^2] */
(PID.TID 0001.0001)    15 @  0.000000000000000E+00              /* K =  1: 15 */
(PID.TID 0001.0001)     ;
(PID.TID 0001.0001) rotateGrid = /* use rotated grid ( True/False ) */
(PID.TID 0001.0001)                   F
(PID.TID 0001.0001)     ;
(PID.TID 0001.0001) phiEuler = /* Euler angle, rotation about original z-coordinate [rad] */
(PID.TID 0001.0001)                 0.000000000000000E+00
(PID.TID 0001.0001)     ;
(PID.TID 0001.0001) thetaEuler = /* Euler angle, rotation about new x-coordinate [rad] */
(PID.TID 0001.0001)                 0.000000000000000E+00
(PID.TID 0001.0001)     ;
(PID.TID 0001.0001) psiEuler = /* Euler angle, rotation about new z-coordinate [rad] */
(PID.TID 0001.0001)                 0.000000000000000E+00
(PID.TID 0001.0001)     ;
(PID.TID 0001.0001) dxF =  /* dxF(:,1,:,1) ( units: m ) */
(PID.TID 0001.0001)                 1.202082051331828E+05,      /* I =  1 */
(PID.TID 0001.0001)                 1.563594089971120E+05,      /* I =  2 */
(PID.TID 0001.0001)                 1.835530058121492E+05,      /* I =  3 */
(PID.TID 0001.0001)                 2.045883481718707E+05,      /* I =  4 */
(PID.TID 0001.0001)                 2.218350349844185E+05,      /* I =  5 */
(PID.TID 0001.0001)                 2.364352994647058E+05,      /* I =  6 */
(PID.TID 0001.0001)                 2.490022710862746E+05,      /* I =  7 */
(PID.TID 0001.0001)                 2.598919724358304E+05,      /* I =  8 */
(PID.TID 0001.0001)                 2.693210245495156E+05,      /* I =  9 */
(PID.TID 0001.0001)                 2.774243179696503E+05,      /* I = 10 */
(PID.TID 0001.0001)                 2.842862532064524E+05,      /* I = 11 */
[...]
 Computing Diagnostic #     81  oceTAUX      Counter:       1   Parms: UU      U1      
           Vector  Mate for  oceTAUX      Diagnostic #     82  oceTAUY  exists 
 Computing Diagnostic #     82  oceTAUY      Counter:       1   Parms: VV      U1      
           Vector  Mate for  oceTAUY      Diagnostic #     81  oceTAUX  exists 
 Computing Diagnostic #     85  oceFWflx     Counter:       1   Parms: SM      U1      
 Computing Diagnostic #     86  oceSflux     Counter:       1   Parms: SM      U1      
 Computing Diagnostic #     87  oceQnet      Counter:       1   Parms: SM      U1      
 Computing Diagnostic #     88  oceQsw       Counter:       1   Parms: SM      U1      
 Computing Diagnostic #     27  SALT         Counter:       1   Parms: SMR     MR      
 Computing Diagnostic #     26  THETA        Counter:       1   Parms: SMR     MR      
 Computing Diagnostic #     45  UVELMASS     Counter:       1   Parms: UUr     MR      
           Vector  Mate for  UVELMASS     Diagnostic #     46  VVELMASS exists 
 Computing Diagnostic #     46  VVELMASS     Counter:       1   Parms: VVr     MR      
           Vector  Mate for  VVELMASS     Diagnostic #     45  UVELMASS exists 
 DRIVER_GET_EXPORT_STATE_3D:MASK : Associated & shape =          32          32          15
 cg2d: Sum(rhs),rhsMax =  -7.41458423113917E+01  3.65379803329481E+01
(PID.TID 0001.0001)      cg2d_init_res =   2.62742494473441E-01
(PID.TID 0001.0001)      cg2d_iters(min,last) =      -1      10
(PID.TID 0001.0001)      cg2d_last_res =   9.49485969470611E-08
 DRIVER_GET_EXPORT_STATE_3D:MASK : Associated & shape =          32          32          15
 cg2d: Sum(rhs),rhsMax =  -7.46242273903122E+01  3.65440821887811E+01
(PID.TID 0001.0001)      cg2d_init_res =   2.51651222630883E-01
(PID.TID 0001.0001)      cg2d_iters(min,last) =      -1      11
(PID.TID 0001.0001)      cg2d_last_res =   2.31762361707972E-08
 DRIVER_GET_EXPORT_STATE_3D:MASK : Associated & shape =          32          32          15
 cg2d: Sum(rhs),rhsMax =  -7.51475234521899E+01  3.65267451199196E+01
(PID.TID 0001.0001)      cg2d_init_res =   2.40703999246379E-01
(PID.TID 0001.0001)      cg2d_iters(min,last) =      -1      11
(PID.TID 0001.0001)      cg2d_last_res =   2.46355992538880E-08
 DRIVER_GET_EXPORT_STATE_3D:MASK : Associated & shape =          32          32          15
 cg2d: Sum(rhs),rhsMax =  -7.57167429532029E+01  3.64859296428110E+01
(PID.TID 0001.0001)      cg2d_init_res =   2.30165377216197E-01
(PID.TID 0001.0001)      cg2d_iters(min,last) =      -1      11
(PID.TID 0001.0001)      cg2d_last_res =   2.54075222871664E-08
 Computing Diagnostic #     81  oceTAUX      Counter:       1   Parms: UU      U1      
           Vector  Mate for  oceTAUX      Diagnostic #     82  oceTAUY  exists 
 Computing Diagnostic #     82  oceTAUY      Counter:       1   Parms: VV      U1      
           Vector  Mate for  oceTAUY      Diagnostic #     81  oceTAUX  exists 
 Computing Diagnostic #     85  oceFWflx     Counter:       1   Parms: SM      U1      
 Computing Diagnostic #     86  oceSflux     Counter:       1   Parms: SM      U1      
 Computing Diagnostic #     87  oceQnet      Counter:       1   Parms: SM      U1      
 Computing Diagnostic #     88  oceQsw       Counter:       1   Parms: SM      U1      
 Computing Diagnostic #     27  SALT         Counter:       1   Parms: SMR     MR      
 Computing Diagnostic #     26  THETA        Counter:       1   Parms: SMR     MR      
 Computing Diagnostic #     45  UVELMASS     Counter:       1   Parms: UUr     MR      
           Vector  Mate for  UVELMASS     Diagnostic #     46  VVELMASS exists 
 Computing Diagnostic #     46  VVELMASS     Counter:       1   Parms: VVr     MR      
           Vector  Mate for  VVELMASS     Diagnostic #     45  UVELMASS exists 
 DRIVER_GET_EXPORT_STATE_3D:MASK : Associated & shape =          32          32          15
 cg2d: Sum(rhs),rhsMax =  -7.61101854572153E+01  3.65281158554645E+01
(PID.TID 0001.0001)      cg2d_init_res =   2.19678166881350E-01
(PID.TID 0001.0001)      cg2d_iters(min,last) =      -1      10
(PID.TID 0001.0001)      cg2d_last_res =   9.52171310061619E-08
 DRIVER_GET_EXPORT_STATE_3D:MASK : Associated & shape =          32          32          15
 cg2d: Sum(rhs),rhsMax =  -7.64767035039127E+01  3.65817139115311E+01
(PID.TID 0001.0001)      cg2d_init_res =   2.10102444819116E-01
(PID.TID 0001.0001)      cg2d_iters(min,last) =      -1      10
(PID.TID 0001.0001)      cg2d_last_res =   8.25676945902630E-08
 DRIVER_GET_EXPORT_STATE_3D:MASK : Associated & shape =          32          32          15
 cg2d: Sum(rhs),rhsMax =  -7.68664351540372E+01  3.66229432690313E+01
(PID.TID 0001.0001)      cg2d_init_res =   2.01948255186568E-01
(PID.TID 0001.0001)      cg2d_iters(min,last) =      -1      10
(PID.TID 0001.0001)      cg2d_last_res =   7.64284849420118E-08
 DRIVER_GET_EXPORT_STATE_3D:MASK : Associated & shape =          32          32          15
 cg2d: Sum(rhs),rhsMax =  -7.72887355845747E+01  3.66499885790596E+01
(PID.TID 0001.0001)      cg2d_init_res =   1.95599783451480E-01
(PID.TID 0001.0001)      cg2d_iters(min,last) =      -1      10
(PID.TID 0001.0001)      cg2d_last_res =   8.52665462922393E-08
 Computing Diagnostic #     81  oceTAUX      Counter:       1   Parms: UU      U1      
           Vector  Mate for  oceTAUX      Diagnostic #     82  oceTAUY  exists 
 Computing Diagnostic #     82  oceTAUY      Counter:       1   Parms: VV      U1      
           Vector  Mate for  oceTAUY      Diagnostic #     81  oceTAUX  exists 
 Computing Diagnostic #     85  oceFWflx     Counter:       1   Parms: SM      U1      
 Computing Diagnostic #     86  oceSflux     Counter:       1   Parms: SM      U1      
 Computing Diagnostic #     87  oceQnet      Counter:       1   Parms: SM      U1      
 Computing Diagnostic #     88  oceQsw       Counter:       1   Parms: SM      U1      
 Computing Diagnostic #     27  SALT         Counter:       1   Parms: SMR     MR      
 Computing Diagnostic #     26  THETA        Counter:       1   Parms: SMR     MR      
 Computing Diagnostic #     45  UVELMASS     Counter:       1   Parms: UUr     MR      
           Vector  Mate for  UVELMASS     Diagnostic #     46  VVELMASS exists 
 Computing Diagnostic #     46  VVELMASS     Counter:       1   Parms: VVr     MR      
           Vector  Mate for  VVELMASS     Diagnostic #     45  UVELMASS exists 
 DRIVER_GET_EXPORT_STATE_3D:MASK : Associated & shape =          32          32          15
 cg2d: Sum(rhs),rhsMax =  -7.77611874984257E+01  3.66612070833496E+01
(PID.TID 0001.0001)      cg2d_init_res =   1.92769718844440E-01
(PID.TID 0001.0001)      cg2d_iters(min,last) =      -1      10
(PID.TID 0001.0001)      cg2d_last_res =   9.13673145519696E-08
 DRIVER_GET_EXPORT_STATE_3D:MASK : Associated & shape =          32          32          15
 cg2d: Sum(rhs),rhsMax =  -7.82772053696863E+01  3.66557673499633E+01
(PID.TID 0001.0001)      cg2d_init_res =   1.89945208316898E-01
(PID.TID 0001.0001)      cg2d_iters(min,last) =      -1      10
(PID.TID 0001.0001)      cg2d_last_res =   8.08126392096250E-08
 DRIVER_GET_EXPORT_STATE_3D:MASK : Associated & shape =          32          32          15
 cg2d: Sum(rhs),rhsMax =  -7.87711584703698E+01  3.66344953689168E+01
(PID.TID 0001.0001)      cg2d_init_res =   1.95424773181543E-01
(PID.TID 0001.0001)      cg2d_iters(min,last) =      -1      10
(PID.TID 0001.0001)      cg2d_last_res =   5.86252228164492E-08
 DRIVER_GET_EXPORT_STATE_3D:MASK : Associated & shape =          32          32          15
 cg2d: Sum(rhs),rhsMax =  -7.92898561686927E+01  3.65985982111580E+01
(PID.TID 0001.0001)      cg2d_init_res =   1.90367232881165E-01
(PID.TID 0001.0001)      cg2d_iters(min,last) =      -1      10
(PID.TID 0001.0001)      cg2d_last_res =   4.92730765636825E-08
 Computing Diagnostic #     81  oceTAUX      Counter:       1   Parms: UU      U1      
           Vector  Mate for  oceTAUX      Diagnostic #     82  oceTAUY  exists 
 Computing Diagnostic #     82  oceTAUY      Counter:       1   Parms: VV      U1      
           Vector  Mate for  oceTAUY      Diagnostic #     81  oceTAUX  exists 
 Computing Diagnostic #     85  oceFWflx     Counter:       1   Parms: SM      U1      
 Computing Diagnostic #     86  oceSflux     Counter:       1   Parms: SM      U1      
 Computing Diagnostic #     87  oceQnet      Counter:       1   Parms: SM      U1      
 Computing Diagnostic #     88  oceQsw       Counter:       1   Parms: SM      U1      
 Computing Diagnostic #     27  SALT         Counter:       1   Parms: SMR     MR      
 Computing Diagnostic #     26  THETA        Counter:       1   Parms: SMR     MR      
 Computing Diagnostic #     45  UVELMASS     Counter:       1   Parms: UUr     MR      
           Vector  Mate for  UVELMASS     Diagnostic #     46  VVELMASS exists 
 Computing Diagnostic #     46  VVELMASS     Counter:       1   Parms: VVr     MR      
           Vector  Mate for  VVELMASS     Diagnostic #     45  UVELMASS exists 
 DRIVER_GET_EXPORT_STATE_3D:MASK : Associated & shape =          32          32          15
 cg2d: Sum(rhs),rhsMax =  -7.98349029850882E+01  3.65495934769434E+01
(PID.TID 0001.0001)      cg2d_init_res =   1.90276749436341E-01
(PID.TID 0001.0001)      cg2d_iters(min,last) =      -1      10
(PID.TID 0001.0001)      cg2d_last_res =   6.99430064831858E-08
 DRIVER_GET_EXPORT_STATE_3D:MASK : Associated & shape =          32          32          15
 cg2d: Sum(rhs),rhsMax =  -8.04029923750786E+01  3.64898522971605E+01
(PID.TID 0001.0001)      cg2d_init_res =   1.92494039707117E-01
(PID.TID 0001.0001)      cg2d_iters(min,last) =      -1      10
(PID.TID 0001.0001)      cg2d_last_res =   8.34681998432595E-08
 DRIVER_GET_EXPORT_STATE_3D:MASK : Associated & shape =          32          32          15
 cg2d: Sum(rhs),rhsMax =  -8.09853767917409E+01  3.64224078278197E+01
(PID.TID 0001.0001)      cg2d_init_res =   1.94768567292893E-01
(PID.TID 0001.0001)      cg2d_iters(min,last) =      -1      10
(PID.TID 0001.0001)      cg2d_last_res =   8.78497008702619E-08
 DRIVER_GET_EXPORT_STATE_3D:MASK : Associated & shape =          32          32          15
 cg2d: Sum(rhs),rhsMax =  -8.15755312754731E+01  3.63509640635524E+01
(PID.TID 0001.0001)      cg2d_init_res =   1.96680976041590E-01
(PID.TID 0001.0001)      cg2d_iters(min,last) =      -1      10
(PID.TID 0001.0001)      cg2d_last_res =   8.69957272349904E-08
 Computing Diagnostic #     81  oceTAUX      Counter:       1   Parms: UU      U1      
           Vector  Mate for  oceTAUX      Diagnostic #     82  oceTAUY  exists 
 Computing Diagnostic #     82  oceTAUY      Counter:       1   Parms: VV      U1      
           Vector  Mate for  oceTAUY      Diagnostic #     81  oceTAUX  exists 
 Computing Diagnostic #     85  oceFWflx     Counter:       1   Parms: SM      U1      
 Computing Diagnostic #     86  oceSflux     Counter:       1   Parms: SM      U1      
 Computing Diagnostic #     87  oceQnet      Counter:       1   Parms: SM      U1      
 Computing Diagnostic #     88  oceQsw       Counter:       1   Parms: SM      U1      
 Computing Diagnostic #     27  SALT         Counter:       1   Parms: SMR     MR      
 Computing Diagnostic #     26  THETA        Counter:       1   Parms: SMR     MR      
 Computing Diagnostic #     45  UVELMASS     Counter:       1   Parms: UUr     MR      
           Vector  Mate for  UVELMASS     Diagnostic #     46  VVELMASS exists 
 Computing Diagnostic #     46  VVELMASS     Counter:       1   Parms: VVr     MR      
           Vector  Mate for  VVELMASS     Diagnostic #     45  UVELMASS exists 
 DRIVER_GET_EXPORT_STATE_3D:MASK : Associated & shape =          32          32          15
 cg2d: Sum(rhs),rhsMax =  -8.21650747063675E+01  3.62795093158955E+01
(PID.TID 0001.0001)      cg2d_init_res =   1.98073236625489E-01
(PID.TID 0001.0001)      cg2d_iters(min,last) =      -1      10
(PID.TID 0001.0001)      cg2d_last_res =   8.35761580944455E-08
 DRIVER_GET_EXPORT_STATE_3D:MASK : Associated & shape =          32          32          15
 cg2d: Sum(rhs),rhsMax =  -8.27032163029656E+01  3.62298448765310E+01
(PID.TID 0001.0001)      cg2d_init_res =   1.98664352646377E-01
(PID.TID 0001.0001)      cg2d_iters(min,last) =      -1      10
(PID.TID 0001.0001)      cg2d_last_res =   7.87154891352195E-08
 DRIVER_GET_EXPORT_STATE_3D:MASK : Associated & shape =          32          32          15
 cg2d: Sum(rhs),rhsMax =  -8.30220470961174E+01  3.62751603634503E+01
(PID.TID 0001.0001)      cg2d_init_res =   1.98031448753891E-01
(PID.TID 0001.0001)      cg2d_iters(min,last) =      -1      10
(PID.TID 0001.0001)      cg2d_last_res =   7.32057412650016E-08
 DRIVER_GET_EXPORT_STATE_3D:MASK : Associated & shape =          32          32          15
 cg2d: Sum(rhs),rhsMax =  -8.33350012835621E+01  3.63218464441019E+01
(PID.TID 0001.0001)      cg2d_init_res =   1.96628932026128E-01
(PID.TID 0001.0001)      cg2d_iters(min,last) =      -1      10
(PID.TID 0001.0001)      cg2d_last_res =   6.67264454304250E-08
 Computing Diagnostic #     81  oceTAUX      Counter:       1   Parms: UU      U1      
           Vector  Mate for  oceTAUX      Diagnostic #     82  oceTAUY  exists 
 Computing Diagnostic #     82  oceTAUY      Counter:       1   Parms: VV      U1      
           Vector  Mate for  oceTAUY      Diagnostic #     81  oceTAUX  exists 
 Computing Diagnostic #     85  oceFWflx     Counter:       1   Parms: SM      U1      
 Computing Diagnostic #     86  oceSflux     Counter:       1   Parms: SM      U1      
 Computing Diagnostic #     87  oceQnet      Counter:       1   Parms: SM      U1      
 Computing Diagnostic #     88  oceQsw       Counter:       1   Parms: SM      U1      
 Computing Diagnostic #     27  SALT         Counter:       1   Parms: SMR     MR      
 Computing Diagnostic #     26  THETA        Counter:       1   Parms: SMR     MR      
 Computing Diagnostic #     45  UVELMASS     Counter:       1   Parms: UUr     MR      
           Vector  Mate for  UVELMASS     Diagnostic #     46  VVELMASS exists 
 Computing Diagnostic #     46  VVELMASS     Counter:       1   Parms: VVr     MR      
           Vector  Mate for  VVELMASS     Diagnostic #     45  UVELMASS exists 
 DRIVER_GET_EXPORT_STATE_3D:MASK : Associated & shape =          32          32          15
 cg2d: Sum(rhs),rhsMax =  -8.36406930791629E+01  3.63696609978211E+01
(PID.TID 0001.0001)      cg2d_init_res =   1.94451884072676E-01
(PID.TID 0001.0001)      cg2d_iters(min,last) =      -1      10
(PID.TID 0001.0001)      cg2d_last_res =   5.65230317982755E-08
 DRIVER_GET_EXPORT_STATE_3D:MASK : Associated & shape =          32          32          15
 cg2d: Sum(rhs),rhsMax =  -8.39419941010401E+01  3.64184342721933E+01
(PID.TID 0001.0001)      cg2d_init_res =   1.91628609990068E-01
(PID.TID 0001.0001)      cg2d_iters(min,last) =      -1      10
(PID.TID 0001.0001)      cg2d_last_res =   4.00905076802645E-08
 DRIVER_GET_EXPORT_STATE_3D:MASK : Associated & shape =          32          32          15
 cg2d: Sum(rhs),rhsMax =  -8.42397274178377E+01  3.64679844023969E+01
(PID.TID 0001.0001)      cg2d_init_res =   1.88258116461179E-01
(PID.TID 0001.0001)      cg2d_iters(min,last) =      -1      10
(PID.TID 0001.0001)      cg2d_last_res =   3.17578774399907E-08
 DRIVER_GET_EXPORT_STATE_3D:MASK : Associated & shape =          32          32          15
 cg2d: Sum(rhs),rhsMax =  -8.45411532566072E+01  3.65181478149847E+01
(PID.TID 0001.0001)      cg2d_init_res =   1.84882503651876E-01
(PID.TID 0001.0001)      cg2d_iters(min,last) =      -1      10
(PID.TID 0001.0001)      cg2d_last_res =   3.52538420786559E-08
 Computing Diagnostic #     81  oceTAUX      Counter:       1   Parms: UU      U1      
           Vector  Mate for  oceTAUX      Diagnostic #     82  oceTAUY  exists 
 Computing Diagnostic #     82  oceTAUY      Counter:       1   Parms: VV      U1      
           Vector  Mate for  oceTAUY      Diagnostic #     81  oceTAUX  exists 
 Computing Diagnostic #     85  oceFWflx     Counter:       1   Parms: SM      U1      
 Computing Diagnostic #     86  oceSflux     Counter:       1   Parms: SM      U1      
 Computing Diagnostic #     87  oceQnet      Counter:       1   Parms: SM      U1      
 Computing Diagnostic #     88  oceQsw       Counter:       1   Parms: SM      U1      
 Computing Diagnostic #     27  SALT         Counter:       1   Parms: SMR     MR      
 Computing Diagnostic #     26  THETA        Counter:       1   Parms: SMR     MR      
 Computing Diagnostic #     45  UVELMASS     Counter:       1   Parms: UUr     MR      
           Vector  Mate for  UVELMASS     Diagnostic #     46  VVELMASS exists 
 Computing Diagnostic #     46  VVELMASS     Counter:       1   Parms: VVr     MR      
           Vector  Mate for  VVELMASS     Diagnostic #     45  UVELMASS exists 
 DRIVER_GET_EXPORT_STATE_3D:MASK : Associated & shape =          32          32          15
 cg2d: Sum(rhs),rhsMax =  -8.48364469079918E+01  3.65686485029279E+01
(PID.TID 0001.0001)      cg2d_init_res =   1.80234106167697E-01
(PID.TID 0001.0001)      cg2d_iters(min,last) =      -1      10
(PID.TID 0001.0001)      cg2d_last_res =   5.32298677755895E-08
 DRIVER_GET_EXPORT_STATE_3D:MASK : Associated & shape =          32          32          15
 cg2d: Sum(rhs),rhsMax =  -8.50977926872542E+01  3.66191595223777E+01
(PID.TID 0001.0001)      cg2d_init_res =   1.77755015859385E-01
(PID.TID 0001.0001)      cg2d_iters(min,last) =      -1      10
(PID.TID 0001.0001)      cg2d_last_res =   6.41855905946576E-08
 DRIVER_GET_EXPORT_STATE_3D:MASK : Associated & shape =          32          32          15
 cg2d: Sum(rhs),rhsMax =  -8.53529549507227E+01  3.66693163555951E+01
(PID.TID 0001.0001)      cg2d_init_res =   1.72316897374833E-01
(PID.TID 0001.0001)      cg2d_iters(min,last) =      -1      10
(PID.TID 0001.0001)      cg2d_last_res =   6.93112614391744E-08
 DRIVER_GET_EXPORT_STATE_3D:MASK : Associated & shape =          32          32          15
 cg2d: Sum(rhs),rhsMax =  -8.56059933697121E+01  3.67187260763025E+01
(PID.TID 0001.0001)      cg2d_init_res =   1.66688364428339E-01
(PID.TID 0001.0001)      cg2d_iters(min,last) =      -1      10
(PID.TID 0001.0001)      cg2d_last_res =   7.14789305500575E-08
 Computing Diagnostic #     81  oceTAUX      Counter:       1   Parms: UU      U1      
           Vector  Mate for  oceTAUX      Diagnostic #     82  oceTAUY  exists 
 Computing Diagnostic #     82  oceTAUY      Counter:       1   Parms: VV      U1      
           Vector  Mate for  oceTAUY      Diagnostic #     81  oceTAUX  exists 
 Computing Diagnostic #     85  oceFWflx     Counter:       1   Parms: SM      U1      
 Computing Diagnostic #     86  oceSflux     Counter:       1   Parms: SM      U1      
 Computing Diagnostic #     87  oceQnet      Counter:       1   Parms: SM      U1      
 Computing Diagnostic #     88  oceQsw       Counter:       1   Parms: SM      U1      
 Computing Diagnostic #     27  SALT         Counter:       1   Parms: SMR     MR      
 Computing Diagnostic #     26  THETA        Counter:       1   Parms: SMR     MR      
 Computing Diagnostic #     45  UVELMASS     Counter:       1   Parms: UUr     MR      
           Vector  Mate for  UVELMASS     Diagnostic #     46  VVELMASS exists 
 Computing Diagnostic #     46  VVELMASS     Counter:       1   Parms: VVr     MR      
           Vector  Mate for  VVELMASS     Diagnostic #     45  UVELMASS exists 
 DRIVER_GET_EXPORT_STATE_3D:MASK : Associated & shape =          32          32          15
 cg2d: Sum(rhs),rhsMax =  -8.58581693291772E+01  3.67669373034461E+01
(PID.TID 0001.0001)      cg2d_init_res =   1.61712331620939E-01
(PID.TID 0001.0001)      cg2d_iters(min,last) =      -1      10
(PID.TID 0001.0001)      cg2d_last_res =   7.19265660100807E-08
 DRIVER_GET_EXPORT_STATE_3D:MASK : Associated & shape =          32          32          15
