(PID.TID 0000.0001) 
(PID.TID 0000.0001) // ======================================================
(PID.TID 0000.0001) //                      MITgcm UV
(PID.TID 0000.0001) //                      =========
(PID.TID 0000.0001) // ======================================================
(PID.TID 0000.0001) // execution environment starting up...
(PID.TID 0000.0001) 
(PID.TID 0000.0001) // MITgcmUV version:  checkpoint66k
(PID.TID 0000.0001) // Build user:        heracles
(PID.TID 0000.0001) // Build host:        heracles
(PID.TID 0000.0001) // Build date:        Thu Oct 12 06:22:43 PDT 2017
(PID.TID 0000.0001) 
(PID.TID 0000.0001) // =======================================================
(PID.TID 0000.0001) // Execution Environment parameter file "eedata"
(PID.TID 0000.0001) // =======================================================
(PID.TID 0000.0001) ># Example "eedata" file
(PID.TID 0000.0001) ># Lines beginning "#" are comments
(PID.TID 0000.0001) ># nTx - No. threads per process in X
(PID.TID 0000.0001) ># nTy - No. threads per process in Y
(PID.TID 0000.0001) > &EEPARMS
(PID.TID 0000.0001) > useCubedSphereExchange=.TRUE.,
(PID.TID 0000.0001) > nTx=1,
(PID.TID 0000.0001) > nTy=1,
(PID.TID 0000.0001) > &end
(PID.TID 0000.0001) ># Note: Some systems use & as the
(PID.TID 0000.0001) ># namelist terminator. Other systems
(PID.TID 0000.0001) ># use a / character (as shown here).
(PID.TID 0000.0001) 
(PID.TID 0000.0001) // =======================================================
(PID.TID 0000.0001) // Computational Grid Specification ( see files "SIZE.h" )
(PID.TID 0000.0001) //                                  ( and "eedata"       )
(PID.TID 0000.0001) // =======================================================
(PID.TID 0000.0001)      nPx =    6 ; /* No. processes in X */
(PID.TID 0000.0001)      nPy =    1 ; /* No. processes in Y */
(PID.TID 0000.0001)      nSx =    1 ; /* No. tiles in X per process */
(PID.TID 0000.0001)      nSy =    1 ; /* No. tiles in Y per process */
(PID.TID 0000.0001)      sNx =   32 ; /* Tile size in X */
(PID.TID 0000.0001)      sNy =   32 ; /* Tile size in Y */
(PID.TID 0000.0001)      OLx =    4 ; /* Tile overlap distance in X */
(PID.TID 0000.0001)      OLy =    4 ; /* Tile overlap distance in Y */
(PID.TID 0000.0001)      nTx =    1 ; /* No. threads in X per process */
(PID.TID 0000.0001)      nTy =    1 ; /* No. threads in Y per process */
(PID.TID 0000.0001)       Nr =   15 ; /* No. levels in the vertical   */
(PID.TID 0000.0001)       Nx =  192 ; /* Total domain size in X ( = nPx*nSx*sNx ) */
(PID.TID 0000.0001)       Ny =   32 ; /* Total domain size in Y ( = nPy*nSy*sNy ) */
(PID.TID 0000.0001)   nTiles =    1 ; /* Total no. tiles per process ( = nSx*nSy ) */
(PID.TID 0000.0001)   nProcs =    6 ; /* Total no. processes ( = nPx*nPy ) */
(PID.TID 0000.0001) nThreads =    1 ; /* Total no. threads per process ( = nTx*nTy ) */
(PID.TID 0000.0001) usingMPI =    T ; /* Flag used to control whether MPI is in use */
(PID.TID 0000.0001)                   /*  note: To execute a program with MPI calls */
(PID.TID 0000.0001)                   /*  it must be launched appropriately e.g     */
(PID.TID 0000.0001)                   /*  "mpirun -np 64 ......"                    */
(PID.TID 0000.0001) useCoupler=    F ;/* Flag used to control communications with   */
(PID.TID 0000.0001)                   /*  other model components, through a coupler */
(PID.TID 0000.0001) debugMode =    F ; /* print debug msg. (sequence of S/R calls)  */
(PID.TID 0000.0001) printMapIncludesZeros=    F ; /* print zeros in Std.Output maps */
(PID.TID 0000.0001) maxLengthPrt1D=   65 /* maxLength of 1D array printed to StdOut */
(PID.TID 0000.0001) 
(PID.TID 0000.0001) ======= Starting MPI parallel Run =========
(PID.TID 0000.0001)  My Processor Name (len:  8 ) = heracles
(PID.TID 0000.0001)  Located at (  0,  0) on processor grid (0:  5,0:  0)
(PID.TID 0000.0001)  Origin at  (     1,     1) on global grid (1:   192,1:    32)
(PID.TID 0000.0001)  North neighbor = processor 0000
(PID.TID 0000.0001)  South neighbor = processor 0000
(PID.TID 0000.0001)   East neighbor = processor 0001
(PID.TID 0000.0001)   West neighbor = processor 0005
(PID.TID 0000.0001) // ======================================================
(PID.TID 0000.0001) // Mapping of tiles to threads
(PID.TID 0000.0001) // ======================================================
(PID.TID 0000.0001) // -o- Thread   1, tiles (   1:   1,   1:   1)
(PID.TID 0000.0001) 
(PID.TID 0000.0001) W2_READPARMS: file data.exch2 not found
(PID.TID 0000.0001) => use W2_EXCH2 default: regular 6-facets Cube
(PID.TID 0000.0001) W2_useE2ioLayOut=    T ;/* T: use Exch2 glob IO map; F: use model default */
(PID.TID 0000.0001) W2_mapIO        =  -1 ; /* select option for Exch2 global-IO map */
(PID.TID 0000.0001) W2_printMsg     =  -1 ; /* select option for printing information */
(PID.TID 0000.0001) ===== Start setting W2 TOPOLOGY:
(PID.TID 0000.0001)  write to log-file: w2_tile_topology.0000.log
(PID.TID 0000.0001) =====       setting W2 TOPOLOGY: Done
(PID.TID 0000.0001) 
(PID.TID 0000.0001)  INI_PARMS: opening model parameter file "data"
(PID.TID 0000.0001)  OPEN_COPY_DATA_FILE: opening file data
(PID.TID 0000.0001) // =======================================================
(PID.TID 0000.0001) // Parameter file "data"
(PID.TID 0000.0001) // =======================================================
(PID.TID 0000.0001) ># ====================
(PID.TID 0000.0001) ># | Model parameters |
(PID.TID 0000.0001) ># ====================
(PID.TID 0000.0001) >#
(PID.TID 0000.0001) ># Continuous equation parameters
(PID.TID 0000.0001) > &PARM01
(PID.TID 0000.0001) > tRef=15*20.,
(PID.TID 0000.0001) > sRef=15*35.,
(PID.TID 0000.0001) > viscAh =3.E5,
(PID.TID 0000.0001) > viscAr =1.E-3,
(PID.TID 0000.0001) > diffKrT=3.E-5,
(PID.TID 0000.0001) > diffKrS=3.E-5,
(PID.TID 0000.0001) > ivdc_kappa=10.,
(PID.TID 0000.0001) > implicitDiffusion=.TRUE.,
(PID.TID 0000.0001) > rhonil=1035.,
(PID.TID 0000.0001) > rhoConstFresh=1000.,
(PID.TID 0000.0001) > eosType='JMD95Z',
(PID.TID 0000.0001) > staggerTimeStep=.TRUE.,
(PID.TID 0000.0001) > vectorInvariantMomentum=.TRUE.,
(PID.TID 0000.0001) > implicitFreeSurface=.TRUE.,
(PID.TID 0000.0001) > exactConserv=.TRUE.,
(PID.TID 0000.0001) > select_rStar=2,
(PID.TID 0000.0001) > nonlinFreeSurf=4,
(PID.TID 0000.0001) > useRealFreshWaterFlux=.TRUE.,
(PID.TID 0000.0001) > allowFreezing=.TRUE.,
(PID.TID 0000.0001) > hFacMin=.1,
(PID.TID 0000.0001) > hFacMinDr=20.,
(PID.TID 0000.0001) > readBinaryPrec=64,
(PID.TID 0000.0001) > useSingleCpuIo=.TRUE.,
(PID.TID 0000.0001) > &end
(PID.TID 0000.0001) >
(PID.TID 0000.0001) ># Elliptic solver parameters
(PID.TID 0000.0001) > &PARM02
(PID.TID 0000.0001) > &end
(PID.TID 0000.0001) >
(PID.TID 0000.0001) ># Time stepping parameters
(PID.TID 0000.0001) > &PARM03
(PID.TID 0000.0001) > nIter0           = 72000,
(PID.TID 0000.0001) >  nTimeSteps       = 4,
(PID.TID 0000.0001) > deltaT           = 25.,
(PID.TID 0000.0001) > monitorFreq      = 25.,
(PID.TID 0000.0001) > abEps            = 0.1,
(PID.TID 0000.0001) > tracForcingOutAB = 1,
(PID.TID 0000.0001) > &end
(PID.TID 0000.0001) >
(PID.TID 0000.0001) ># Gridding parameters
(PID.TID 0000.0001) > &PARM04
(PID.TID 0000.0001) > usingCurvilinearGrid=.TRUE.,
(PID.TID 0000.0001) > horizGridFile='grid_cs32',
(PID.TID 0000.0001) > delR= 50., 70., 100., 140., 190.,
(PID.TID 0000.0001) >       240., 290., 340., 390., 440.,
(PID.TID 0000.0001) >       490., 540., 590., 640., 690.,
(PID.TID 0000.0001) > &end
(PID.TID 0000.0001) >
(PID.TID 0000.0001) ># Input datasets
(PID.TID 0000.0001) > &PARM05
(PID.TID 0000.0001) > bathyFile      ='bathy_Hmin50.bin',
(PID.TID 0000.0001) > &end
(PID.TID 0000.0001) 
(PID.TID 0000.0001)  INI_PARMS ; starts to read PARM01
(PID.TID 0000.0001)  INI_PARMS ; read PARM01 : OK
(PID.TID 0000.0001)  INI_PARMS ; starts to read PARM02
(PID.TID 0000.0001)  INI_PARMS ; read PARM02 : OK
(PID.TID 0000.0001)  INI_PARMS ; starts to read PARM03
(PID.TID 0000.0001)  INI_PARMS ; read PARM03 : OK
(PID.TID 0000.0001)  INI_PARMS ; starts to read PARM04
(PID.TID 0000.0001)  INI_PARMS ; read PARM04 : OK
(PID.TID 0000.0001)  INI_PARMS ; starts to read PARM05
(PID.TID 0000.0001)  INI_PARMS ; read PARM05 : OK
(PID.TID 0000.0001)  INI_PARMS: finished reading file "data"
(PID.TID 0000.0001)  PACKAGES_BOOT: opening data.pkg
(PID.TID 0000.0001)  OPEN_COPY_DATA_FILE: opening file data.pkg
(PID.TID 0000.0001) // =======================================================
(PID.TID 0000.0001) // Parameter file "data.pkg"
(PID.TID 0000.0001) // =======================================================
(PID.TID 0000.0001) ># Packages
(PID.TID 0000.0001) > &PACKAGES
(PID.TID 0000.0001) > useGMRedi=.TRUE.,
(PID.TID 0000.0001) > &end
(PID.TID 0000.0001) 
(PID.TID 0000.0001)  PACKAGES_BOOT: finished reading data.pkg
(PID.TID 0000.0001)  PACKAGES_BOOT: On/Off package Summary
 --------  pkgs with a standard "usePKG" On/Off switch in "data.pkg":  --------
 pkg/gmredi               compiled   and   used ( useGMRedi                = T )
 pkg/bulk_force           compiled but not used ( useBulkForce             = F )
 pkg/diagnostics          compiled but not used ( useDiagnostics           = F )
 -------- pkgs without standard "usePKG" On/Off switch in "data.pkg":  --------
 pkg/generic_advdiff      compiled   and   used ( useGAD                   = T )
 pkg/mom_common           compiled   and   used ( momStepping              = T )
 pkg/mom_vecinv           compiled   and   used ( +vectorInvariantMomentum = T )
 pkg/mom_fluxform         compiled but not used ( & not vectorInvariantMom = F )
 pkg/monitor              compiled   and   used ( monitorFreq > 0.         = T )
 pkg/timeave              compiled but not used ( taveFreq > 0.            = F )
 pkg/debug                compiled but not used ( debugMode                = F )
 pkg/exch2                compiled   and   used
 pkg/rw                   compiled   and   used
 pkg/mdsio                compiled   and   used
(PID.TID 0000.0001)  PACKAGES_BOOT: End of package Summary
(PID.TID 0000.0001) 
(PID.TID 0000.0001)  GM_READPARMS: opening data.gmredi
(PID.TID 0000.0001)  OPEN_COPY_DATA_FILE: opening file data.gmredi
(PID.TID 0000.0001) // =======================================================
(PID.TID 0000.0001) // Parameter file "data.gmredi"
(PID.TID 0000.0001) // =======================================================
(PID.TID 0000.0001) ># GM+Redi package parameters:
(PID.TID 0000.0001) >
(PID.TID 0000.0001) >#-from MOM :
(PID.TID 0000.0001) ># GM_background_K: 	G & Mc.W  diffusion coefficient
(PID.TID 0000.0001) ># GM_maxSlope    :	max slope of isopycnals
(PID.TID 0000.0001) ># GM_Scrit       :	transition for scaling diffusion coefficient
(PID.TID 0000.0001) ># GM_Sd          :	half width scaling for diffusion coefficient
(PID.TID 0000.0001) ># GM_taper_scheme:	slope clipping or one of the tapering schemes
(PID.TID 0000.0001) ># GM_Kmin_horiz  :	horizontal diffusion minimum value
(PID.TID 0000.0001) >
(PID.TID 0000.0001) >#-Option parameters (needs to "define" options in GMREDI_OPTIONS.h")
(PID.TID 0000.0001) ># GM_isopycK     :	isopycnal diffusion coefficient (default=GM_background_K)
(PID.TID 0000.0001) ># GM_AdvForm     :	turn on GM Advective form       (default=Skew flux form)
(PID.TID 0000.0001) >
(PID.TID 0000.0001) > &GM_PARM01
(PID.TID 0000.0001) >  GM_background_K    = 800.,
(PID.TID 0000.0001) >  GM_taper_scheme    = 'gkw91',
(PID.TID 0000.0001) >  GM_maxSlope        = 1.e-2,
(PID.TID 0000.0001) >  GM_Kmin_horiz      = 50.,
(PID.TID 0000.0001) >  GM_Scrit           = 4.e-3,
(PID.TID 0000.0001) >  GM_Sd              = 1.e-3,
(PID.TID 0000.0001) ># GM_Visbeck_alpha   = 0.,
(PID.TID 0000.0001) ># GM_Visbeck_length  = 2.e+5,
(PID.TID 0000.0001) ># GM_Visbeck_depth   = 1.e+3,
(PID.TID 0000.0001) ># GM_Visbeck_maxval_K= 2.5e+3,
(PID.TID 0000.0001) > &end
(PID.TID 0000.0001) >
(PID.TID 0000.0001) >
(PID.TID 0000.0001) 
(PID.TID 0000.0001)  GM_READPARMS: finished reading data.gmredi
(PID.TID 0000.0001) SET_PARMS: done
(PID.TID 0000.0001) Enter INI_VERTICAL_GRID: setInterFDr=    T ; setCenterDr=    F
(PID.TID 0000.0001) tile:   1 ; Read from file grid_cs32.face001.bin
(PID.TID 0000.0001)   => xC yC dxF dyF rA xG yG dxV dyU rAz dxC dyC rAw rAs dxG dyG AngleCS AngleSN
(PID.TID 0000.0001) %MON XC_max                       =   1.7854351589505E+02
(PID.TID 0000.0001) %MON XC_min                       =  -1.7854351589505E+02
(PID.TID 0000.0001) %MON XC_mean                      =  -4.6999441375798E-15
(PID.TID 0000.0001) %MON XC_sd                        =   1.0355545336287E+02
(PID.TID 0000.0001) %MON XG_max                       =   1.8000000000000E+02
(PID.TID 0000.0001) %MON XG_min                       =  -1.7708797161002E+02
(PID.TID 0000.0001) %MON XG_mean                      =   1.8603515625000E+00
(PID.TID 0000.0001) %MON XG_sd                        =   1.0357130300504E+02
(PID.TID 0000.0001) %MON DXC_max                      =   3.2375185836900E+05
(PID.TID 0000.0001) %MON DXC_min                      =   1.1142031410131E+05
(PID.TID 0000.0001) %MON DXC_mean                     =   2.8605689051214E+05
(PID.TID 0000.0001) %MON DXC_sd                       =   3.4042087138252E+04
(PID.TID 0000.0001) %MON DXF_max                      =   3.2369947500827E+05
(PID.TID 0000.0001) %MON DXF_min                      =   1.2020820513318E+05
(PID.TID 0000.0001) %MON DXF_mean                     =   2.8605437324820E+05
(PID.TID 0000.0001) %MON DXF_sd                       =   3.4050524252539E+04
(PID.TID 0000.0001) %MON DXG_max                      =   3.2375195872773E+05
(PID.TID 0000.0001) %MON DXG_min                      =   1.0098378008791E+05
(PID.TID 0000.0001) %MON DXG_mean                     =   2.8603818508931E+05
(PID.TID 0000.0001) %MON DXG_sd                       =   3.4140406908005E+04
(PID.TID 0000.0001) %MON DXV_max                      =   3.2380418162750E+05
(PID.TID 0000.0001) %MON DXV_min                      =   8.0152299824136E+04
(PID.TID 0000.0001) %MON DXV_mean                     =   2.8603970633619E+05
(PID.TID 0000.0001) %MON DXV_sd                       =   3.4145142117723E+04
(PID.TID 0000.0001) %MON YC_max                       =   8.7940663871962E+01
(PID.TID 0000.0001) %MON YC_min                       =  -8.7940663871962E+01
(PID.TID 0000.0001) %MON YC_mean                      =   0.0000000000000E+00
(PID.TID 0000.0001) %MON YC_sd                        =   3.8676242969072E+01
(PID.TID 0000.0001) %MON YG_max                       =   9.0000000000000E+01
(PID.TID 0000.0001) %MON YG_min                       =  -9.0000000000000E+01
(PID.TID 0000.0001) %MON YG_mean                      =  -1.1842378929335E-15
(PID.TID 0000.0001) %MON YG_sd                        =   3.8676895860710E+01
(PID.TID 0000.0001) %MON DYC_max                      =   3.2375185836900E+05
(PID.TID 0000.0001) %MON DYC_min                      =   1.1142031410131E+05
(PID.TID 0000.0001) %MON DYC_mean                     =   2.8605689051214E+05
(PID.TID 0000.0001) %MON DYC_sd                       =   3.4042087138252E+04
(PID.TID 0000.0001) %MON DYF_max                      =   3.2369947500827E+05
(PID.TID 0000.0001) %MON DYF_min                      =   1.2020820513318E+05
(PID.TID 0000.0001) %MON DYF_mean                     =   2.8605437324820E+05
(PID.TID 0000.0001) %MON DYF_sd                       =   3.4050524252539E+04
(PID.TID 0000.0001) %MON DYG_max                      =   3.2375195872773E+05
(PID.TID 0000.0001) %MON DYG_min                      =   1.0098378008791E+05
(PID.TID 0000.0001) %MON DYG_mean                     =   2.8603818508931E+05
(PID.TID 0000.0001) %MON DYG_sd                       =   3.4140406908005E+04
(PID.TID 0000.0001) %MON DYU_max                      =   3.2380418162750E+05
(PID.TID 0000.0001) %MON DYU_min                      =   8.0152299824136E+04
(PID.TID 0000.0001) %MON DYU_mean                     =   2.8603970633619E+05
(PID.TID 0000.0001) %MON DYU_sd                       =   3.4145142117723E+04
(PID.TID 0000.0001) %MON RA_max                       =   1.0479260248419E+11
(PID.TID 0000.0001) %MON RA_min                       =   1.4019007022556E+10
(PID.TID 0000.0001) %MON RA_mean                      =   8.2992246709265E+10
(PID.TID 0000.0001) %MON RA_sd                        =   1.7509089299457E+10
(PID.TID 0000.0001) %MON RAW_max                      =   1.0480965274559E+11
(PID.TID 0000.0001) %MON RAW_min                      =   1.2166903467143E+10
(PID.TID 0000.0001) %MON RAW_mean                     =   8.2992246709235E+10
(PID.TID 0000.0001) %MON RAW_sd                       =   1.7481917919656E+10
(PID.TID 0000.0001) %MON RAS_max                      =   1.0480965274559E+11
(PID.TID 0000.0001) %MON RAS_min                      =   1.2166903467143E+10
(PID.TID 0000.0001) %MON RAS_mean                     =   8.2992246709235E+10
(PID.TID 0000.0001) %MON RAS_sd                       =   1.7481917919656E+10
(PID.TID 0000.0001) %MON RAZ_max                      =   1.0484349334619E+11
(PID.TID 0000.0001) %MON RAZ_min                      =   8.8317900612505E+09
(PID.TID 0000.0001) %MON RAZ_mean                     =   8.2992246709235E+10
(PID.TID 0000.0001) %MON RAZ_sd                       =   1.7482297311044E+10
(PID.TID 0000.0001) %MON AngleCS_max                  =   9.9999994756719E-01
(PID.TID 0000.0001) %MON AngleCS_min                  =  -9.9968286884824E-01
(PID.TID 0000.0001) %MON AngleCS_mean                 =   3.3078922539000E-01
(PID.TID 0000.0001) %MON AngleCS_sd                   =   6.2496278958502E-01
(PID.TID 0000.0001) %MON AngleSN_max                  =   9.9968286884824E-01
(PID.TID 0000.0001) %MON AngleSN_min                  =  -9.9999994756719E-01
(PID.TID 0000.0001) %MON AngleSN_mean                 =  -3.3078922539000E-01
(PID.TID 0000.0001) %MON AngleSN_sd                   =   6.2496278958502E-01
(PID.TID 0000.0001)  MDS_READ_FIELD: opening global file: bathy_Hmin50.bin
(PID.TID 0000.0001) // =======================================================
(PID.TID 0000.0001) // Field Model R_low (ini_masks_etc)
(PID.TID 0000.0001) // CMIN =         -5.200000000000000E+03
(PID.TID 0000.0001) // CMAX =         -5.000000000000000E+01
(PID.TID 0000.0001) // CINT =          1.907407407407407E+02
(PID.TID 0000.0001) // SYMBOLS (CMIN->CMAX): -abcdefghijklmnopqrstuvwxyz+
(PID.TID 0000.0001) //                  0.0: .
(PID.TID 0000.0001) // RANGE I (Lo:Hi:Step):(    -3:    36:     1)
(PID.TID 0000.0001) // RANGE J (Lo:Hi:Step):(    36:    -3:    -1)
(PID.TID 0000.0001) // RANGE K (Lo:Hi:Step):(   1:   1:   1)
(PID.TID 0000.0001) // =======================================================
(PID.TID 0000.0001) K =   1
(PID.TID 0000.0001) //                I=6       I=16      I=26      I=36
(PID.TID 0000.0001) // |--J--|321012345|789012345|789012345|789012345|
(PID.TID 0000.0001) //     36 cbbc-ddcbcdehkhhmn..++..................
(PID.TID 0000.0001) //     35 dcac--cbbeefjkfefw+..........zpu........
(PID.TID 0000.0001) //     34 d--ba-abcehjnldcclz+........spps........
(PID.TID 0000.0001) //     33 --abbbccceiomkfdbbc+.......+s...........
(PID.TID 0000.0001) //     32 --bddefhhkqqlgfaakqz..v.+..+............
(PID.TID 0000.0001) //     31 abbcffijnpnqneaaat..umrr+s.z............
(PID.TID 0000.0001) //     30 --adgillkkkifcadcx.ymmqzqikvnnps........
(PID.TID 0000.0001) //     29 --cfiljigfjd--efdozy...+ximpnnuz........
(PID.TID 0000.0001) //     28 -abgkhfcccea-bdei........t..............
(PID.TID 0000.0001) //     27 -acghfbaaaa-achmy......................+
(PID.TID 0000.0001) //     26 -adhfca-----bfiv.......................+
(PID.TID 0000.0001) //     25 -achfa------ch+..................w......
(PID.TID 0000.0001) //     24 aaeifa--acbcei...................w......
(PID.TID 0000.0001) //     23 abfida-aabchjk...................zz.....
(PID.TID 0000.0001) //     22 -afhfaa---bfgi....................zz..rn
(PID.TID 0000.0001) //     21 babcgca----abe.....................ysstl
(PID.TID 0000.0001) //     20 fbbbcgfcaa-aae+.......................lc
(PID.TID 0000.0001) //     19 zmfeccdghfeegcbt......................aa
(PID.TID 0000.0001) //     18 ..wifedfkhfegbbcivlqfoz..............jaa
(PID.TID 0000.0001) //     17 ..+wfeefikhgcbbccaaacgn.............icaa
(PID.TID 0000.0001) //     16 ....wiheddeccdfhfbabdfl............jdbad
(PID.TID 0000.0001) //     15 ......ylea--acfihebcbbes..........sfcbbn
(PID.TID 0000.0001) //     14 ........c---acgkhdcc--di..........ofddch
(PID.TID 0000.0001) //     13 .......+b----cfkhec---afz.........nhfdff
(PID.TID 0000.0001) //     12 .......ec----chjhec---ag..........skiqdd
(PID.TID 0000.0001) //     11 ......pdca--achlheba--ai..........nkn.fd
(PID.TID 0000.0001) //     10 ......wfdb--achlhea---an.........uos..dc
(PID.TID 0000.0001) //      9 ......vgec---bfikca--cjl+.......+nnv.+cc
(PID.TID 0000.0001) //      8 .....zleca---afjfca--hdfz.......vkky.jce
(PID.TID 0000.0001) //      7 ...+zohec--abcfkhecbchbdx.......qiht.faa
(PID.TID 0000.0001) //      6 ..+yomfddcaabefkifdchaadt......uqdeisc--
(PID.TID 0000.0001) //      5 ..+nhgffkghccfhkhffgdaackz....uoibcimlaa
(PID.TID 0000.0001) //      4 .+ujhgfllfhdffhkfffca-aady...llnabdopfcb
(PID.TID 0000.0001) //      3 +vjggfcceeffffjlkjgaa---bfvheeln-aesphfd
(PID.TID 0000.0001) //      2 qifeecbbccddefilihecbaacbaajfega-aesqhff
(PID.TID 0000.0001) //      1 ebbbbaaaaaccdfhlhfefdcccaabjefbaaafonhgl
(PID.TID 0000.0001) //      0 -aaaaaaa-aacccfikkhecccbbbaaabaadfkllilm
(PID.TID 0000.0001) //     -1 --aaaaa----aacffiljgfffcca--adfikkiikimi
(PID.TID 0000.0001) //     -2 --aaa-------acdefinmlgiieb-chnnnmlmlfklk
(PID.TID 0000.0001) //     -3 a--a---aa---aedeegknmlgiigcdfhpokkimdkmk
(PID.TID 0000.0001) // =======================================================
(PID.TID 0000.0001) // END OF FIELD                                          =
(PID.TID 0000.0001) // =======================================================
(PID.TID 0000.0001) 
(PID.TID 0000.0001) // =======================================================
(PID.TID 0000.0001) // Field Model Ro_surf (ini_masks_etc)
(PID.TID 0000.0001) // CMIN =          1.000000000000000E+32
(PID.TID 0000.0001) // CMAX =         -1.000000000000000E+32
(PID.TID 0000.0001) // CINT =          0.000000000000000E+00
(PID.TID 0000.0001) // SYMBOLS (CMIN->CMAX): -abcdefghijklmnopqrstuvwxyz+
(PID.TID 0000.0001) //                  0.0: .
(PID.TID 0000.0001) // RANGE I (Lo:Hi:Step):(    -3:    36:     1)
(PID.TID 0000.0001) // RANGE J (Lo:Hi:Step):(    36:    -3:    -1)
(PID.TID 0000.0001) // RANGE K (Lo:Hi:Step):(   1:   1:   1)
(PID.TID 0000.0001) // =======================================================
(PID.TID 0000.0001) // =======================================================
(PID.TID 0000.0001) // END OF FIELD                                          =
(PID.TID 0000.0001) // =======================================================
(PID.TID 0000.0001) 
(PID.TID 0000.0001) // =======================================================
(PID.TID 0000.0001) // Field hFacC at iteration          0
(PID.TID 0000.0001) // CMIN =          1.000000000000000E+00
(PID.TID 0000.0001) // CMAX =          1.000000000000000E+00
(PID.TID 0000.0001) // CINT =          0.000000000000000E+00
(PID.TID 0000.0001) // SYMBOLS (CMIN->CMAX): -abcdefghijklmnopqrstuvwxyz+
(PID.TID 0000.0001) //                  0.0: .
(PID.TID 0000.0001) // RANGE I (Lo:Hi:Step):(    -3:    36:     1)
(PID.TID 0000.0001) // RANGE J (Lo:Hi:Step):(    36:    -3:    -1)
(PID.TID 0000.0001) // RANGE K (Lo:Hi:Step):(   1:   1:   1)
(PID.TID 0000.0001) // =======================================================
(PID.TID 0000.0001) // =======================================================
(PID.TID 0000.0001) // END OF FIELD                                          =
(PID.TID 0000.0001) // =======================================================
(PID.TID 0000.0001) 
(PID.TID 0000.0001) // =======================================================
(PID.TID 0000.0001) // Field hFacW at iteration          0
(PID.TID 0000.0001) // CMIN =          1.000000000000000E+00
(PID.TID 0000.0001) // CMAX =          1.000000000000000E+00
(PID.TID 0000.0001) // CINT =          0.000000000000000E+00
(PID.TID 0000.0001) // SYMBOLS (CMIN->CMAX): -abcdefghijklmnopqrstuvwxyz+
(PID.TID 0000.0001) //                  0.0: .
(PID.TID 0000.0001) // RANGE I (Lo:Hi:Step):(    -3:    36:     1)
(PID.TID 0000.0001) // RANGE J (Lo:Hi:Step):(    36:    -3:    -1)
(PID.TID 0000.0001) // RANGE K (Lo:Hi:Step):(   1:   1:   1)
(PID.TID 0000.0001) // =======================================================
(PID.TID 0000.0001) // =======================================================
(PID.TID 0000.0001) // END OF FIELD                                          =
(PID.TID 0000.0001) // =======================================================
(PID.TID 0000.0001) 
(PID.TID 0000.0001) // =======================================================
(PID.TID 0000.0001) // Field hFacS at iteration          0
(PID.TID 0000.0001) // CMIN =          1.000000000000000E+00
(PID.TID 0000.0001) // CMAX =          1.000000000000000E+00
(PID.TID 0000.0001) // CINT =          0.000000000000000E+00
(PID.TID 0000.0001) // SYMBOLS (CMIN->CMAX): -abcdefghijklmnopqrstuvwxyz+
(PID.TID 0000.0001) //                  0.0: .
(PID.TID 0000.0001) // RANGE I (Lo:Hi:Step):(    -3:    36:     1)
(PID.TID 0000.0001) // RANGE J (Lo:Hi:Step):(    36:    -3:    -1)
(PID.TID 0000.0001) // RANGE K (Lo:Hi:Step):(   1:   1:   1)
(PID.TID 0000.0001) // =======================================================
(PID.TID 0000.0001) // =======================================================
(PID.TID 0000.0001) // END OF FIELD                                          =
(PID.TID 0000.0001) // =======================================================
(PID.TID 0000.0001) 
(PID.TID 0000.0001) GAD_INIT_FIXED: GAD_OlMinSize=  1  0  1
(PID.TID 0000.0001) 
(PID.TID 0000.0001) // ===================================
(PID.TID 0000.0001) // GAD parameters :
(PID.TID 0000.0001) // ===================================
(PID.TID 0000.0001) tempAdvScheme =   /* Temp. Horiz.Advection scheme selector */
(PID.TID 0000.0001)                       2
(PID.TID 0000.0001)     ;
(PID.TID 0000.0001) tempVertAdvScheme =   /* Temp. Vert. Advection scheme selector */
(PID.TID 0000.0001)                       2
(PID.TID 0000.0001)     ;
(PID.TID 0000.0001) tempMultiDimAdvec =   /* use Muti-Dim Advec method for Temp */
(PID.TID 0000.0001)                   F
(PID.TID 0000.0001)     ;
(PID.TID 0000.0001) tempSOM_Advection = /* use 2nd Order Moment Advection for Temp */
(PID.TID 0000.0001)                   F
(PID.TID 0000.0001)     ;
(PID.TID 0000.0001) AdamsBashforthGt = /* apply Adams-Bashforth extrapolation on Gt */
(PID.TID 0000.0001)                   T
(PID.TID 0000.0001)     ;
(PID.TID 0000.0001) AdamsBashforth_T = /* apply Adams-Bashforth extrapolation on Temp */
(PID.TID 0000.0001)                   F
(PID.TID 0000.0001)     ;
(PID.TID 0000.0001) saltAdvScheme =   /* Salt. Horiz.advection scheme selector */
(PID.TID 0000.0001)                       2
(PID.TID 0000.0001)     ;
(PID.TID 0000.0001) saltVertAdvScheme =   /* Salt. Vert. Advection scheme selector */
(PID.TID 0000.0001)                       2
(PID.TID 0000.0001)     ;
(PID.TID 0000.0001) saltMultiDimAdvec =   /* use Muti-Dim Advec method for Salt */
(PID.TID 0000.0001)                   F
(PID.TID 0000.0001)     ;
(PID.TID 0000.0001) saltSOM_Advection = /* use 2nd Order Moment Advection for Salt */
(PID.TID 0000.0001)                   F
(PID.TID 0000.0001)     ;
(PID.TID 0000.0001) AdamsBashforthGs = /* apply Adams-Bashforth extrapolation on Gs */
(PID.TID 0000.0001)                   T
(PID.TID 0000.0001)     ;
(PID.TID 0000.0001) AdamsBashforth_S = /* apply Adams-Bashforth extrapolation on Salt */
(PID.TID 0000.0001)                   F
(PID.TID 0000.0001)     ;
(PID.TID 0000.0001) // ===================================
(PID.TID 0000.0001) INI_GLOBAL_DOMAIN: Found  19 CS-corner Pts in the domain
(PID.TID 0000.0001) %MON fCori_max                    =   1.4574827780704E-04
(PID.TID 0000.0001) %MON fCori_min                    =  -1.4574827780704E-04
(PID.TID 0000.0001) %MON fCori_mean                   =   0.0000000000000E+00
(PID.TID 0000.0001) %MON fCori_sd                     =   8.4202189509968E-05
(PID.TID 0000.0001) %MON fCoriG_max                   =   1.4584247033981E-04
(PID.TID 0000.0001) %MON fCoriG_min                   =  -1.4584247033981E-04
(PID.TID 0000.0001) %MON fCoriG_mean                  =   2.2587545260115E-21
(PID.TID 0000.0001) %MON fCoriG_sd                    =   8.4202189509968E-05
(PID.TID 0000.0001) %MON fCoriCos_max                 =   1.4580166994612E-04
(PID.TID 0000.0001) %MON fCoriCos_min                 =   5.2407700865903E-06
(PID.TID 0000.0001) %MON fCoriCos_mean                =   1.1514045869113E-04
(PID.TID 0000.0001) %MON fCoriCos_sd                  =   3.0375849106513E-05
(PID.TID 0000.0001) INI_CG2D: CG2D normalisation factor =  1.9156564154949553E-04
(PID.TID 0000.0001) 
(PID.TID 0000.0001) // =======================================================
(PID.TID 0000.0001) // Model configuration
(PID.TID 0000.0001) // =======================================================
(PID.TID 0000.0001) //
(PID.TID 0000.0001) // "Physical" paramters ( PARM01 in namelist )
(PID.TID 0000.0001) //
(PID.TID 0000.0001) buoyancyRelation = /* Type of relation to get Buoyancy */
(PID.TID 0000.0001)               'OCEANIC'
(PID.TID 0000.0001)     ;
(PID.TID 0000.0001) fluidIsAir   =  /* fluid major constituent is Air */
(PID.TID 0000.0001)                   F
(PID.TID 0000.0001)     ;
(PID.TID 0000.0001) fluidIsWater =  /* fluid major constituent is Water */
(PID.TID 0000.0001)                   T
(PID.TID 0000.0001)     ;
(PID.TID 0000.0001) usingPCoords =  /* use p (or p*) vertical coordinate */
(PID.TID 0000.0001)                   F
(PID.TID 0000.0001)     ;
(PID.TID 0000.0001) usingZCoords =  /* use z (or z*) vertical coordinate */
(PID.TID 0000.0001)                   T
(PID.TID 0000.0001)     ;
(PID.TID 0000.0001) tRef =   /* Reference temperature profile ( oC or K ) */
(PID.TID 0000.0001)    15 @  2.000000000000000E+01              /* K =  1: 15 */
(PID.TID 0000.0001)     ;
(PID.TID 0000.0001) sRef =   /* Reference salinity profile ( psu ) */
(PID.TID 0000.0001)    15 @  3.500000000000000E+01              /* K =  1: 15 */
(PID.TID 0000.0001)     ;
(PID.TID 0000.0001) useStrainTensionVisc= /* Use StrainTension Form of Viscous Operator */
(PID.TID 0000.0001)                   F
(PID.TID 0000.0001)     ;
(PID.TID 0000.0001) useVariableVisc = /* Use variable horizontal viscosity */
(PID.TID 0000.0001)                   F
(PID.TID 0000.0001)     ;
(PID.TID 0000.0001) useHarmonicVisc = /* Use harmonic horizontal viscosity */
(PID.TID 0000.0001)                   T
(PID.TID 0000.0001)     ;
(PID.TID 0000.0001) useBiharmonicVisc= /* Use biharmonic horiz.  viscosity */
(PID.TID 0000.0001)                   F
(PID.TID 0000.0001)     ;
(PID.TID 0000.0001) useSmag3D = /* Use isotropic 3-D Smagorinsky viscosity */
(PID.TID 0000.0001)                   F
(PID.TID 0000.0001)     ;
(PID.TID 0000.0001) viscAh  =   /* Lateral harmonic viscosity ( m^2/s ) */
(PID.TID 0000.0001)                 3.000000000000000E+05
(PID.TID 0000.0001)     ;
(PID.TID 0000.0001) viscA4  =   /* Lateral biharmonic viscosity ( m^4/s ) */
(PID.TID 0000.0001)                 0.000000000000000E+00
(PID.TID 0000.0001)     ;
(PID.TID 0000.0001) no_slip_sides =  /* Viscous BCs: No-slip sides */
(PID.TID 0000.0001)                   T
(PID.TID 0000.0001)     ;
(PID.TID 0000.0001) sideDragFactor = /* side-drag scaling factor (non-dim) */
(PID.TID 0000.0001)                 2.000000000000000E+00
(PID.TID 0000.0001)     ;
(PID.TID 0000.0001) viscArNr = /* vertical profile of vertical viscosity ( m^2/s )*/
(PID.TID 0000.0001)    15 @  1.000000000000000E-03              /* K =  1: 15 */
(PID.TID 0000.0001)     ;
(PID.TID 0000.0001) no_slip_bottom =  /* Viscous BCs: No-slip bottom */
(PID.TID 0000.0001)                   T
(PID.TID 0000.0001)     ;
(PID.TID 0000.0001) bottomVisc_pCell = /* Partial-cell in bottom Visc. BC */
(PID.TID 0000.0001)                   F
(PID.TID 0000.0001)     ;
(PID.TID 0000.0001) bottomDragLinear = /* linear bottom-drag coefficient ( m/s ) */
(PID.TID 0000.0001)                 0.000000000000000E+00
(PID.TID 0000.0001)     ;
(PID.TID 0000.0001) bottomDragQuadratic = /* quadratic bottom-drag coefficient (-) */
(PID.TID 0000.0001)                 0.000000000000000E+00
(PID.TID 0000.0001)     ;
(PID.TID 0000.0001) selectBotDragQuadr = /* select quadratic bottom drag options */
(PID.TID 0000.0001)                      -1
(PID.TID 0000.0001)     ;
(PID.TID 0000.0001) diffKhT =   /* Laplacian diffusion of heat laterally ( m^2/s ) */
(PID.TID 0000.0001)                 0.000000000000000E+00
(PID.TID 0000.0001)     ;
(PID.TID 0000.0001) diffK4T =   /* Biharmonic diffusion of heat laterally ( m^4/s ) */
(PID.TID 0000.0001)                 0.000000000000000E+00
(PID.TID 0000.0001)     ;
(PID.TID 0000.0001) diffKhS =   /* Laplacian diffusion of salt laterally ( m^2/s ) */
(PID.TID 0000.0001)                 0.000000000000000E+00
(PID.TID 0000.0001)     ;
(PID.TID 0000.0001) diffK4S =   /* Biharmonic diffusion of salt laterally ( m^4/s ) */
(PID.TID 0000.0001)                 0.000000000000000E+00
(PID.TID 0000.0001)     ;
(PID.TID 0000.0001) diffKrNrT = /* vertical profile of vertical diffusion of Temp ( m^2/s )*/
(PID.TID 0000.0001)    15 @  3.000000000000000E-05              /* K =  1: 15 */
(PID.TID 0000.0001)     ;
(PID.TID 0000.0001) diffKrNrS = /* vertical profile of vertical diffusion of Salt ( m^2/s )*/
(PID.TID 0000.0001)    15 @  3.000000000000000E-05              /* K =  1: 15 */
(PID.TID 0000.0001)     ;
(PID.TID 0000.0001) diffKrBL79surf = /* Surface diffusion for Bryan and Lewis 79 ( m^2/s ) */
(PID.TID 0000.0001)                 0.000000000000000E+00
(PID.TID 0000.0001)     ;
(PID.TID 0000.0001) diffKrBL79deep = /* Deep diffusion for Bryan and Lewis 1979 ( m^2/s ) */
(PID.TID 0000.0001)                 0.000000000000000E+00
(PID.TID 0000.0001)     ;
(PID.TID 0000.0001) diffKrBL79scl = /* Depth scale for Bryan and Lewis 1979 ( m ) */
(PID.TID 0000.0001)                 2.000000000000000E+02
(PID.TID 0000.0001)     ;
(PID.TID 0000.0001) diffKrBL79Ho = /* Turning depth for Bryan and Lewis 1979 ( m ) */
(PID.TID 0000.0001)                -2.000000000000000E+03
(PID.TID 0000.0001)     ;
(PID.TID 0000.0001) ivdc_kappa = /* Implicit Vertical Diffusivity for Convection ( m^2/s) */
(PID.TID 0000.0001)                 1.000000000000000E+01
(PID.TID 0000.0001)     ;
(PID.TID 0000.0001) hMixCriteria=  /* Criteria for mixed-layer diagnostic */
(PID.TID 0000.0001)                -8.000000000000000E-01
(PID.TID 0000.0001)     ;
(PID.TID 0000.0001) dRhoSmall =  /* Parameter for mixed-layer diagnostic */
(PID.TID 0000.0001)                 1.000000000000000E-06
(PID.TID 0000.0001)     ;
(PID.TID 0000.0001) hMixSmooth=  /* Smoothing parameter for mixed-layer diagnostic */
(PID.TID 0000.0001)                 0.000000000000000E+00
(PID.TID 0000.0001)     ;
(PID.TID 0000.0001) eosType =  /* Type of Equation of State */
(PID.TID 0000.0001)               'JMD95Z'
(PID.TID 0000.0001)     ;
(PID.TID 0000.0001) selectP_inEOS_Zc = /* select pressure to use in EOS (0,1,2,3) */
(PID.TID 0000.0001)                       0
(PID.TID 0000.0001)     0= -g*rhoConst*z ; 1= pRef (from tRef,sRef); 2= Hyd P ; 3= Hyd+NH P
(PID.TID 0000.0001)     ;
(PID.TID 0000.0001) HeatCapacity_Cp =  /* Specific heat capacity ( J/kg/K ) */
(PID.TID 0000.0001)                 3.994000000000000E+03
(PID.TID 0000.0001)     ;
(PID.TID 0000.0001) celsius2K = /* 0 degree Celsius converted to Kelvin ( K ) */
(PID.TID 0000.0001)                 2.731500000000000E+02
(PID.TID 0000.0001)     ;
(PID.TID 0000.0001) rhoConst  = /* Reference density (Boussinesq)  ( kg/m^3 ) */
(PID.TID 0000.0001)                 1.035000000000000E+03
(PID.TID 0000.0001)     ;
(PID.TID 0000.0001) rhoFacC = /* normalized Reference density @ cell-Center (-) */
(PID.TID 0000.0001)    15 @  1.000000000000000E+00              /* K =  1: 15 */
(PID.TID 0000.0001)     ;
(PID.TID 0000.0001) rhoFacF = /* normalized Reference density @ W-Interface (-) */
(PID.TID 0000.0001)    16 @  1.000000000000000E+00              /* K =  1: 16 */
(PID.TID 0000.0001)     ;
(PID.TID 0000.0001) rhoConstFresh = /* Fresh-water reference density ( kg/m^3 ) */
(PID.TID 0000.0001)                 1.000000000000000E+03
(PID.TID 0000.0001)     ;
(PID.TID 0000.0001) gravity =   /* Gravitational acceleration ( m/s^2 ) */
(PID.TID 0000.0001)                 9.810000000000000E+00
(PID.TID 0000.0001)     ;
(PID.TID 0000.0001) gBaro =   /* Barotropic gravity ( m/s^2 ) */
(PID.TID 0000.0001)                 9.810000000000000E+00
(PID.TID 0000.0001)     ;
(PID.TID 0000.0001) gravFacC = /* gravity factor (vs surf.) @ cell-Center (-) */
(PID.TID 0000.0001)    15 @  1.000000000000000E+00              /* K =  1: 15 */
(PID.TID 0000.0001)     ;
(PID.TID 0000.0001) gravFacF = /* gravity factor (vs surf.) @ W-Interface (-) */
(PID.TID 0000.0001)    16 @  1.000000000000000E+00              /* K =  1: 16 */
(PID.TID 0000.0001)     ;
(PID.TID 0000.0001) rotationPeriod =   /* Rotation Period ( s ) */
(PID.TID 0000.0001)                 8.616400000000000E+04
(PID.TID 0000.0001)     ;
(PID.TID 0000.0001) omega =   /* Angular velocity ( rad/s ) */
(PID.TID 0000.0001)                 7.292123516990375E-05
(PID.TID 0000.0001)     ;
(PID.TID 0000.0001) f0 =   /* Reference coriolis parameter ( 1/s ) */
(PID.TID 0000.0001)                 1.000000000000000E-04
(PID.TID 0000.0001)     ;
(PID.TID 0000.0001) beta =   /* Beta ( 1/(m.s) ) */
(PID.TID 0000.0001)                 9.999999999999999E-12
(PID.TID 0000.0001)     ;
(PID.TID 0000.0001) fPrime =   /* Second coriolis parameter ( 1/s ) */
(PID.TID 0000.0001)                 0.000000000000000E+00
(PID.TID 0000.0001)     ;
(PID.TID 0000.0001) rigidLid =   /* Rigid lid on/off flag */
(PID.TID 0000.0001)                   F
(PID.TID 0000.0001)     ;
(PID.TID 0000.0001) implicitFreeSurface =   /* Implicit free surface on/off flag */
(PID.TID 0000.0001)                   T
(PID.TID 0000.0001)     ;
(PID.TID 0000.0001) freeSurfFac =   /* Implicit free surface factor */
(PID.TID 0000.0001)                 1.000000000000000E+00
(PID.TID 0000.0001)     ;
(PID.TID 0000.0001) implicSurfPress =  /* Surface Pressure implicit factor (0-1)*/
(PID.TID 0000.0001)                 1.000000000000000E+00
(PID.TID 0000.0001)     ;
(PID.TID 0000.0001) implicDiv2DFlow =  /* Barot. Flow Div. implicit factor (0-1)*/
(PID.TID 0000.0001)                 1.000000000000000E+00
(PID.TID 0000.0001)     ;
(PID.TID 0000.0001) uniformLin_PhiSurf = /* use uniform Bo_surf on/off flag*/
(PID.TID 0000.0001)                   T
(PID.TID 0000.0001)     ;
(PID.TID 0000.0001) uniformFreeSurfLev = /* free-surface level-index is uniform */
(PID.TID 0000.0001)                   T
(PID.TID 0000.0001)     ;
(PID.TID 0000.0001) hFacMin =   /* minimum partial cell factor (hFac) */
(PID.TID 0000.0001)                 1.000000000000000E-01
(PID.TID 0000.0001)     ;
(PID.TID 0000.0001) hFacMinDr = /* minimum partial cell thickness ( m) */
(PID.TID 0000.0001)                 2.000000000000000E+01
(PID.TID 0000.0001)     ;
(PID.TID 0000.0001) exactConserv =  /* Exact Volume Conservation on/off flag*/
(PID.TID 0000.0001)                   T
(PID.TID 0000.0001)     ;
(PID.TID 0000.0001) linFSConserveTr = /* Tracer correction for Lin Free Surface on/off flag*/
(PID.TID 0000.0001)                   F
(PID.TID 0000.0001)     ;
(PID.TID 0000.0001) nonlinFreeSurf = /* Non-linear Free Surf. options (-1,0,1,2,3)*/
(PID.TID 0000.0001)                       4
(PID.TID 0000.0001)      -1,0= Off ; 1,2,3= On, 2=+rescale gU,gV, 3=+update cg2d solv.
(PID.TID 0000.0001)     ;
(PID.TID 0000.0001) hFacInf =   /* lower threshold for hFac (nonlinFreeSurf only)*/
(PID.TID 0000.0001)                 2.000000000000000E-01
(PID.TID 0000.0001)     ;
(PID.TID 0000.0001) hFacSup =   /* upper threshold for hFac (nonlinFreeSurf only)*/
(PID.TID 0000.0001)                 2.000000000000000E+00
(PID.TID 0000.0001)     ;
(PID.TID 0000.0001) select_rStar = /* r* Vertical coord. options (=0 r coord.; >0 uses r*)*/
(PID.TID 0000.0001)                       2
(PID.TID 0000.0001)     ;
(PID.TID 0000.0001) useRealFreshWaterFlux = /* Real Fresh Water Flux on/off flag*/
(PID.TID 0000.0001)                   T
(PID.TID 0000.0001)     ;
(PID.TID 0000.0001) temp_EvPrRn = /* Temp. of Evap/Prec/R (UNSET=use local T)(oC)*/
(PID.TID 0000.0001)                 1.234567000000000E+05
(PID.TID 0000.0001)     ;
(PID.TID 0000.0001) salt_EvPrRn = /* Salin. of Evap/Prec/R (UNSET=use local S)(psu)*/
(PID.TID 0000.0001)                 0.000000000000000E+00
(PID.TID 0000.0001)     ;
(PID.TID 0000.0001) selectAddFluid = /* option for mass source/sink of fluid (=0: off) */
(PID.TID 0000.0001)                       0
(PID.TID 0000.0001)     ;
(PID.TID 0000.0001) temp_addMass = /* Temp. of addMass array (UNSET=use local T)(oC)*/
(PID.TID 0000.0001)                 1.234567000000000E+05
(PID.TID 0000.0001)     ;
(PID.TID 0000.0001) salt_addMass = /* Salin. of addMass array (UNSET=use local S)(psu)*/
(PID.TID 0000.0001)                 0.000000000000000E+00
(PID.TID 0000.0001)     ;
(PID.TID 0000.0001) use3Dsolver = /* use 3-D pressure solver on/off flag */
(PID.TID 0000.0001)                   F
(PID.TID 0000.0001)     ;
(PID.TID 0000.0001) nonHydrostatic =  /* Non-Hydrostatic on/off flag */
(PID.TID 0000.0001)                   F
(PID.TID 0000.0001)     ;
(PID.TID 0000.0001) nh_Am2 = /* Non-Hydrostatic terms scaling factor */
(PID.TID 0000.0001)                 1.000000000000000E+00
(PID.TID 0000.0001)     ;
(PID.TID 0000.0001) implicitNHPress = /* Non-Hyd Pressure implicit factor (0-1)*/
(PID.TID 0000.0001)                 1.000000000000000E+00
(PID.TID 0000.0001)     ;
(PID.TID 0000.0001) selectNHfreeSurf = /* Non-Hyd (free-)Surface option */
(PID.TID 0000.0001)                       0
(PID.TID 0000.0001)     ;
(PID.TID 0000.0001) quasiHydrostatic = /* Quasi-Hydrostatic on/off flag */
(PID.TID 0000.0001)                   F
(PID.TID 0000.0001)     ;
(PID.TID 0000.0001) calc_wVelocity = /* vertical velocity calculation on/off flag */
(PID.TID 0000.0001)                   T
(PID.TID 0000.0001)     ;
(PID.TID 0000.0001) momStepping =  /* Momentum equation on/off flag */
(PID.TID 0000.0001)                   T
(PID.TID 0000.0001)     ;
(PID.TID 0000.0001) vectorInvariantMomentum= /* Vector-Invariant Momentum on/off */
(PID.TID 0000.0001)                   T
(PID.TID 0000.0001)     ;
(PID.TID 0000.0001) momAdvection =  /* Momentum advection on/off flag */
(PID.TID 0000.0001)                   T
(PID.TID 0000.0001)     ;
(PID.TID 0000.0001) momViscosity =  /* Momentum viscosity on/off flag */
(PID.TID 0000.0001)                   T
(PID.TID 0000.0001)     ;
(PID.TID 0000.0001) momImplVertAdv= /* Momentum implicit vert. advection on/off*/
(PID.TID 0000.0001)                   F
(PID.TID 0000.0001)     ;
(PID.TID 0000.0001) implicitViscosity = /* Implicit viscosity on/off flag */
(PID.TID 0000.0001)                   F
(PID.TID 0000.0001)     ;
(PID.TID 0000.0001) selectImplicitDrag= /* Implicit bot Drag options (0,1,2)*/
(PID.TID 0000.0001)                       0
(PID.TID 0000.0001)     0= Expl. ; 1= Impl. on provis. Vel ; 2= Fully Impl (with surf.P)
(PID.TID 0000.0001)     ;
(PID.TID 0000.0001) metricTerms =  /* metric-Terms on/off flag */
(PID.TID 0000.0001)                   F
(PID.TID 0000.0001)     ;
(PID.TID 0000.0001) useNHMTerms = /* Non-Hydrostatic Metric-Terms on/off */
(PID.TID 0000.0001)                   F
(PID.TID 0000.0001)     ;
(PID.TID 0000.0001) selectCoriMap = /* Coriolis Map options (0,1,2,3)*/
(PID.TID 0000.0001)                       2
(PID.TID 0000.0001)     0= f-Plane ; 1= Beta-Plane ; 2= Spherical ; 3= read from file
(PID.TID 0000.0001)     ;
(PID.TID 0000.0001) use3dCoriolis = /* 3-D Coriolis on/off flag */
(PID.TID 0000.0001)                   F
(PID.TID 0000.0001)     ;
(PID.TID 0000.0001) useCoriolis =  /* Coriolis on/off flag */
(PID.TID 0000.0001)                   T
(PID.TID 0000.0001)     ;
(PID.TID 0000.0001) useCDscheme =  /* CD scheme on/off flag */
(PID.TID 0000.0001)                   F
(PID.TID 0000.0001)     ;
(PID.TID 0000.0001) useEnergyConservingCoriolis= /* Flx-Form Coriolis scheme flag */
(PID.TID 0000.0001)                   F
(PID.TID 0000.0001)     ;
(PID.TID 0000.0001) useJamartWetPoints= /* Coriolis WetPoints method flag */
(PID.TID 0000.0001)                   F
(PID.TID 0000.0001)     ;
(PID.TID 0000.0001) useJamartMomAdv= /* V.I Non-linear terms Jamart flag */
(PID.TID 0000.0001)                   F
(PID.TID 0000.0001)     ;
(PID.TID 0000.0001) useAbsVorticity= /* V.I Works with f+zeta in Coriolis */
(PID.TID 0000.0001)                   F
(PID.TID 0000.0001)     ;
(PID.TID 0000.0001) selectVortScheme= /* V.I Scheme selector for Vorticity-Term */
(PID.TID 0000.0001)                       1
(PID.TID 0000.0001)    = 0 : enstrophy (Shallow-Water Eq.) conserving scheme by Sadourny, JAS 75
(PID.TID 0000.0001)    = 1 : same as 0 with modified hFac
(PID.TID 0000.0001)    = 2 : energy conserving scheme (used by Sadourny in JAS 75 paper)
(PID.TID 0000.0001)    = 3 : energy (general) and enstrophy (2D, nonDiv.) conserving scheme
(PID.TID 0000.0001)          from Sadourny (Burridge & Haseler, ECMWF Rep.4, 1977)
(PID.TID 0000.0001)     ;
(PID.TID 0000.0001) upwindVorticity= /* V.I Upwind bias vorticity flag */
(PID.TID 0000.0001)                   F
(PID.TID 0000.0001)     ;
(PID.TID 0000.0001) highOrderVorticity= /* V.I High order vort. advect. flag */
(PID.TID 0000.0001)                   F
(PID.TID 0000.0001)     ;
(PID.TID 0000.0001) upwindShear= /* V.I Upwind vertical Shear advection flag */
(PID.TID 0000.0001)                   F
(PID.TID 0000.0001)     ;
(PID.TID 0000.0001) selectKEscheme= /* V.I Kinetic Energy scheme selector */
(PID.TID 0000.0001)                       0
(PID.TID 0000.0001)     ;
(PID.TID 0000.0001) momForcing =  /* Momentum forcing on/off flag */
(PID.TID 0000.0001)                   T
(PID.TID 0000.0001)     ;
(PID.TID 0000.0001) momTidalForcing = /* Momentum Tidal forcing on/off flag */
(PID.TID 0000.0001)                   T
(PID.TID 0000.0001)     ;
(PID.TID 0000.0001) momPressureForcing =  /* Momentum pressure term on/off flag */
(PID.TID 0000.0001)                   T
(PID.TID 0000.0001)     ;
(PID.TID 0000.0001) implicitIntGravWave= /* Implicit Internal Gravity Wave flag */
(PID.TID 0000.0001)                   F
(PID.TID 0000.0001)     ;
(PID.TID 0000.0001) staggerTimeStep =    /* Stagger time stepping on/off flag */
(PID.TID 0000.0001)                   T
(PID.TID 0000.0001)     ;
(PID.TID 0000.0001) doResetHFactors = /* reset thickness factors @ each time-step */
(PID.TID 0000.0001)                   F
(PID.TID 0000.0001)     ;
(PID.TID 0000.0001) multiDimAdvection =  /* enable/disable Multi-Dim Advection */
(PID.TID 0000.0001)                   T
(PID.TID 0000.0001)     ;
(PID.TID 0000.0001) useMultiDimAdvec =   /* Multi-Dim Advection is/is-not used */
(PID.TID 0000.0001)                   F
(PID.TID 0000.0001)     ;
(PID.TID 0000.0001) implicitDiffusion = /* Implicit Diffusion on/off flag */
(PID.TID 0000.0001)                   T
(PID.TID 0000.0001)     ;
(PID.TID 0000.0001) tempStepping =  /* Temperature equation on/off flag */
(PID.TID 0000.0001)                   T
(PID.TID 0000.0001)     ;
(PID.TID 0000.0001) tempAdvection = /* Temperature advection on/off flag */
(PID.TID 0000.0001)                   T
(PID.TID 0000.0001)     ;
(PID.TID 0000.0001) tempImplVertAdv = /* Temp. implicit vert. advection on/off */
(PID.TID 0000.0001)                   F
(PID.TID 0000.0001)     ;
(PID.TID 0000.0001) tempForcing  =  /* Temperature forcing on/off flag */
(PID.TID 0000.0001)                   T
(PID.TID 0000.0001)     ;
(PID.TID 0000.0001) balanceQnet  =  /* balance net heat-flux on/off flag */
(PID.TID 0000.0001)                   F
(PID.TID 0000.0001)     ;
(PID.TID 0000.0001) doThetaClimRelax = /* apply SST relaxation on/off flag */
(PID.TID 0000.0001)                   F
(PID.TID 0000.0001)     ;
(PID.TID 0000.0001) balanceThetaClimRelax= /* balance SST relaxation on/off flag */
(PID.TID 0000.0001)                   F
(PID.TID 0000.0001)     ;
(PID.TID 0000.0001) tempIsActiveTr = /* Temp. is a dynamically Active Tracer */
(PID.TID 0000.0001)                   T
(PID.TID 0000.0001)     ;
(PID.TID 0000.0001) saltStepping =  /* Salinity equation on/off flag */
(PID.TID 0000.0001)                   T
(PID.TID 0000.0001)     ;
(PID.TID 0000.0001) saltAdvection = /* Salinity advection on/off flag */
(PID.TID 0000.0001)                   T
(PID.TID 0000.0001)     ;
(PID.TID 0000.0001) saltImplVertAdv = /* Sali. implicit vert. advection on/off */
(PID.TID 0000.0001)                   F
(PID.TID 0000.0001)     ;
(PID.TID 0000.0001) saltForcing  =  /* Salinity forcing on/off flag */
(PID.TID 0000.0001)                   T
(PID.TID 0000.0001)     ;
(PID.TID 0000.0001) balanceEmPmR =  /* balance net fresh-water flux on/off flag */
(PID.TID 0000.0001)                   F
(PID.TID 0000.0001)     ;
(PID.TID 0000.0001) doSaltClimRelax = /* apply SSS relaxation on/off flag */
(PID.TID 0000.0001)                   F
(PID.TID 0000.0001)     ;
(PID.TID 0000.0001) balanceSaltClimRelax= /* balance SSS relaxation on/off flag */
(PID.TID 0000.0001)                   F
(PID.TID 0000.0001)     ;
(PID.TID 0000.0001) saltIsActiveTr = /* Salt  is a dynamically Active Tracer */
(PID.TID 0000.0001)                   T
(PID.TID 0000.0001)     ;
(PID.TID 0000.0001)  readBinaryPrec = /* Precision used for reading binary files */
(PID.TID 0000.0001)                      64
(PID.TID 0000.0001)     ;
(PID.TID 0000.0001) writeBinaryPrec = /* Precision used for writing binary files */
(PID.TID 0000.0001)                      32
(PID.TID 0000.0001)     ;
(PID.TID 0000.0001)  rwSuffixType =   /* select format of mds file suffix */
(PID.TID 0000.0001)                       0
(PID.TID 0000.0001)    = 0 : myIter (I10.10) ;   = 1 : 100*myTime (100th sec) ;
(PID.TID 0000.0001)    = 2 : myTime (seconds);   = 3 : myTime/360 (10th of hr);
(PID.TID 0000.0001)    = 4 : myTime/3600 (hours)
(PID.TID 0000.0001)     ;
(PID.TID 0000.0001)  globalFiles = /* write "global" (=not per tile) files */
(PID.TID 0000.0001)                   F
(PID.TID 0000.0001)     ;
(PID.TID 0000.0001)  useSingleCpuIO = /* only master MPI process does I/O */
(PID.TID 0000.0001)                   T
(PID.TID 0000.0001)     ;
(PID.TID 0000.0001)  useSingleCpuInput = /* only master process reads input */
(PID.TID 0000.0001)                   T
(PID.TID 0000.0001)     ;
(PID.TID 0000.0001) /* debLev[*]  : level of debug & auxiliary message printing */
(PID.TID 0000.0001) debLevZero =  0 ; /* level of disabled aux. msg printing */
(PID.TID 0000.0001)    debLevA =  1 ; /* level of minimum  aux. msg printing */
(PID.TID 0000.0001)    debLevB =  2 ; /* level of low aux. print (report read-file opening)*/
(PID.TID 0000.0001)    debLevC =  3 ; /* level of moderate debug prt (most pkgs debug msg) */
(PID.TID 0000.0001)    debLevD =  4 ; /* level of enhanced debug prt (add DEBUG_STATS prt) */
(PID.TID 0000.0001)    debLevE =  5 ; /* level of extensive debug printing */
(PID.TID 0000.0001) debugLevel =  /* select debug printing level */
(PID.TID 0000.0001)                       2
(PID.TID 0000.0001)     ;
(PID.TID 0000.0001)  plotLevel =  /* select PLOT_FIELD printing level */
(PID.TID 0000.0001)                       2
(PID.TID 0000.0001)     ;
(PID.TID 0000.0001) //
(PID.TID 0000.0001) // Elliptic solver(s) paramters ( PARM02 in namelist )
(PID.TID 0000.0001) //
(PID.TID 0000.0001) cg2dMaxIters =   /* Upper limit on 2d con. grad iterations  */
(PID.TID 0000.0001)                     150
(PID.TID 0000.0001)     ;
(PID.TID 0000.0001) cg2dChkResFreq =   /* 2d con. grad convergence test frequency */
(PID.TID 0000.0001)                       1
(PID.TID 0000.0001)     ;
(PID.TID 0000.0001) cg2dUseMinResSol= /* use cg2d last-iter(=0) / min-resid.(=1) solution */
(PID.TID 0000.0001)                       0
(PID.TID 0000.0001)     ;
(PID.TID 0000.0001) cg2dTargetResidual =   /* 2d con. grad target residual  */
(PID.TID 0000.0001)                 1.000000000000000E-07
(PID.TID 0000.0001)     ;
(PID.TID 0000.0001) cg2dTargetResWunit =   /* CG2d target residual [W units] */
(PID.TID 0000.0001)                -1.000000000000000E+00
(PID.TID 0000.0001)     ;
(PID.TID 0000.0001) cg2dPreCondFreq =   /* Freq. for updating cg2d preconditioner */
(PID.TID 0000.0001)                       1
(PID.TID 0000.0001)     ;
(PID.TID 0000.0001) useSRCGSolver =  /* use single reduction CG solver(s) */
(PID.TID 0000.0001)                   F
(PID.TID 0000.0001)     ;
(PID.TID 0000.0001) printResidualFreq = /* Freq. for printing CG residual */
(PID.TID 0000.0001)                       0
(PID.TID 0000.0001)     ;
(PID.TID 0000.0001) //
(PID.TID 0000.0001) // Time stepping paramters ( PARM03 in namelist )
(PID.TID 0000.0001) //
(PID.TID 0000.0001) deltaTMom =   /* Momentum equation timestep ( s ) */
(PID.TID 0000.0001)                 2.500000000000000E+01
(PID.TID 0000.0001)     ;
(PID.TID 0000.0001) deltaTFreeSurf = /* FreeSurface equation timestep ( s ) */
(PID.TID 0000.0001)                 2.500000000000000E+01
(PID.TID 0000.0001)     ;
(PID.TID 0000.0001) dTtracerLev =  /* Tracer equation timestep ( s ) */
(PID.TID 0000.0001)    15 @  2.500000000000000E+01              /* K =  1: 15 */
(PID.TID 0000.0001)     ;
(PID.TID 0000.0001) deltaTClock  =   /* Model clock timestep ( s ) */
(PID.TID 0000.0001)                 2.500000000000000E+01
(PID.TID 0000.0001)     ;
(PID.TID 0000.0001) cAdjFreq =   /* Convective adjustment interval ( s ) */
(PID.TID 0000.0001)                 0.000000000000000E+00
(PID.TID 0000.0001)     ;
(PID.TID 0000.0001) momForcingOutAB = /* =1: take Momentum Forcing out of Adams-Bash. stepping */
(PID.TID 0000.0001)                       0
(PID.TID 0000.0001)     ;
(PID.TID 0000.0001) tracForcingOutAB = /* =1: take T,S,pTr Forcing out of Adams-Bash. stepping */
(PID.TID 0000.0001)                       1
(PID.TID 0000.0001)     ;
(PID.TID 0000.0001) momDissip_In_AB = /* put Dissipation Tendency in Adams-Bash. stepping */
(PID.TID 0000.0001)                   T
(PID.TID 0000.0001)     ;
(PID.TID 0000.0001) doAB_onGtGs = /* apply AB on Tendencies (rather than on T,S)*/
(PID.TID 0000.0001)                   T
(PID.TID 0000.0001)     ;
(PID.TID 0000.0001) abEps =   /* Adams-Bashforth-2 stabilizing weight */
(PID.TID 0000.0001)                 1.000000000000000E-01
(PID.TID 0000.0001)     ;
(PID.TID 0000.0001) applyExchUV_early = /* Apply EXCH to U,V earlier in time-step */
(PID.TID 0000.0001)                   F
(PID.TID 0000.0001)     ;
(PID.TID 0000.0001) pickupStrictlyMatch= /* stop if pickup do not strictly match */
(PID.TID 0000.0001)                   T
(PID.TID 0000.0001)     ;
(PID.TID 0000.0001) nIter0   =   /* Run starting timestep number */
(PID.TID 0000.0001)                   72000
(PID.TID 0000.0001)     ;
(PID.TID 0000.0001) nTimeSteps = /* Number of timesteps */
(PID.TID 0000.0001)                       4
(PID.TID 0000.0001)     ;
(PID.TID 0000.0001) nEndIter =   /* Run ending timestep number */
(PID.TID 0000.0001)                   72004
(PID.TID 0000.0001)     ;
(PID.TID 0000.0001) baseTime =   /* Model base time ( s ) */
(PID.TID 0000.0001)                 0.000000000000000E+00
(PID.TID 0000.0001)     ;
(PID.TID 0000.0001) startTime =  /* Run start time ( s ) */
(PID.TID 0000.0001)                 1.800000000000000E+06
(PID.TID 0000.0001)     ;
(PID.TID 0000.0001) endTime  =   /* Integration ending time ( s ) */
(PID.TID 0000.0001)                 1.800100000000000E+06
(PID.TID 0000.0001)     ;
(PID.TID 0000.0001) pChkPtFreq = /* Permanent restart/pickup file interval ( s ) */
(PID.TID 0000.0001)                 0.000000000000000E+00
(PID.TID 0000.0001)     ;
(PID.TID 0000.0001) chkPtFreq  = /* Rolling restart/pickup file interval ( s ) */
(PID.TID 0000.0001)                 0.000000000000000E+00
(PID.TID 0000.0001)     ;
(PID.TID 0000.0001) pickup_write_mdsio =   /* Model IO flag. */
(PID.TID 0000.0001)                   T
(PID.TID 0000.0001)     ;
(PID.TID 0000.0001) pickup_read_mdsio =   /* Model IO flag. */
(PID.TID 0000.0001)                   T
(PID.TID 0000.0001)     ;
(PID.TID 0000.0001) writePickupAtEnd =   /* Model IO flag. */
(PID.TID 0000.0001)                   T
(PID.TID 0000.0001)     ;
(PID.TID 0000.0001) dumpFreq =   /* Model state write out interval ( s ). */
(PID.TID 0000.0001)                 0.000000000000000E+00
(PID.TID 0000.0001)     ;
(PID.TID 0000.0001) dumpInitAndLast= /* write out Initial & Last iter. model state */
(PID.TID 0000.0001)                   T
(PID.TID 0000.0001)     ;
(PID.TID 0000.0001) snapshot_mdsio =   /* Model IO flag. */
(PID.TID 0000.0001)                   T
(PID.TID 0000.0001)     ;
(PID.TID 0000.0001) monitorFreq =   /* Monitor output interval ( s ). */
(PID.TID 0000.0001)                 2.500000000000000E+01
(PID.TID 0000.0001)     ;
(PID.TID 0000.0001) monitorSelect = /* select group of variables to monitor */
(PID.TID 0000.0001)                       3
(PID.TID 0000.0001)     ;
(PID.TID 0000.0001) monitor_stdio =   /* Model IO flag. */
(PID.TID 0000.0001)                   T
(PID.TID 0000.0001)     ;
(PID.TID 0000.0001) externForcingPeriod =   /* forcing period (s) */
(PID.TID 0000.0001)                 0.000000000000000E+00
(PID.TID 0000.0001)     ;
(PID.TID 0000.0001) externForcingCycle =   /* period of the cyle (s). */
(PID.TID 0000.0001)                 0.000000000000000E+00
(PID.TID 0000.0001)     ;
(PID.TID 0000.0001) tauThetaClimRelax =   /* relaxation time scale (s) */
(PID.TID 0000.0001)                 0.000000000000000E+00
(PID.TID 0000.0001)     ;
(PID.TID 0000.0001) tauSaltClimRelax =   /* relaxation time scale (s) */
(PID.TID 0000.0001)                 0.000000000000000E+00
(PID.TID 0000.0001)     ;
(PID.TID 0000.0001) latBandClimRelax =   /* max. Lat. where relaxation */
(PID.TID 0000.0001)                 1.800000000000000E+02
(PID.TID 0000.0001)     ;
(PID.TID 0000.0001) //
(PID.TID 0000.0001) // Gridding paramters ( PARM04 in namelist )
(PID.TID 0000.0001) //
(PID.TID 0000.0001) usingCartesianGrid = /* Cartesian coordinates flag ( True/False ) */
(PID.TID 0000.0001)                   F
(PID.TID 0000.0001)     ;
(PID.TID 0000.0001) usingCylindricalGrid = /* Cylindrical coordinates flag ( True/False ) */
(PID.TID 0000.0001)                   F
(PID.TID 0000.0001)     ;
(PID.TID 0000.0001) usingSphericalPolarGrid = /* Spherical coordinates flag ( True/False ) */
(PID.TID 0000.0001)                   F
(PID.TID 0000.0001)     ;
(PID.TID 0000.0001) usingCurvilinearGrid = /* Curvilinear coordinates flag ( True/False ) */
(PID.TID 0000.0001)                   T
(PID.TID 0000.0001)     ;
(PID.TID 0000.0001) useMin4hFacEdges = /* set hFacW,S as minimum of adjacent hFacC factor */
(PID.TID 0000.0001)                   F
(PID.TID 0000.0001)     ;
(PID.TID 0000.0001) selectSigmaCoord = /* Hybrid-Sigma Vert. Coordinate option */
(PID.TID 0000.0001)                       0
(PID.TID 0000.0001)     ;
(PID.TID 0000.0001) rSigmaBnd = /* r/sigma transition ( units of r ==  m ) */
(PID.TID 0000.0001)                 1.234567000000000E+05
(PID.TID 0000.0001)     ;
(PID.TID 0000.0001) rkSign =   /* index orientation relative to vertical coordinate */
(PID.TID 0000.0001)                -1.000000000000000E+00
(PID.TID 0000.0001)     ;
(PID.TID 0000.0001) gravitySign = /* gravity orientation relative to vertical coordinate */
(PID.TID 0000.0001)                -1.000000000000000E+00
(PID.TID 0000.0001)     ;
(PID.TID 0000.0001) seaLev_Z =  /* reference height of sea-level [m] */
(PID.TID 0000.0001)                 0.000000000000000E+00
(PID.TID 0000.0001)     ;
(PID.TID 0000.0001) top_Pres =  /* reference pressure at the top [Pa] */
(PID.TID 0000.0001)                 0.000000000000000E+00
(PID.TID 0000.0001)     ;
(PID.TID 0000.0001) mass2rUnit = /* convert mass per unit area [kg/m2] to r-units [m] */
(PID.TID 0000.0001)                 9.661835748792270E-04
(PID.TID 0000.0001)     ;
(PID.TID 0000.0001) rUnit2mass = /* convert r-units [m] to mass per unit area [kg/m2] */
(PID.TID 0000.0001)                 1.035000000000000E+03
(PID.TID 0000.0001)     ;
(PID.TID 0000.0001) drC =   /* C spacing ( units of r ) */
(PID.TID 0000.0001)                 2.500000000000000E+01,      /* K =  1 */
(PID.TID 0000.0001)                 6.000000000000000E+01,      /* K =  2 */
(PID.TID 0000.0001)                 8.500000000000000E+01,      /* K =  3 */
(PID.TID 0000.0001)                 1.200000000000000E+02,      /* K =  4 */
(PID.TID 0000.0001)                 1.650000000000000E+02,      /* K =  5 */
(PID.TID 0000.0001)                 2.150000000000000E+02,      /* K =  6 */
(PID.TID 0000.0001)                 2.650000000000000E+02,      /* K =  7 */
(PID.TID 0000.0001)                 3.150000000000000E+02,      /* K =  8 */
(PID.TID 0000.0001)                 3.650000000000000E+02,      /* K =  9 */
(PID.TID 0000.0001)                 4.150000000000000E+02,      /* K = 10 */
(PID.TID 0000.0001)                 4.650000000000000E+02,      /* K = 11 */
(PID.TID 0000.0001)                 5.150000000000000E+02,      /* K = 12 */
(PID.TID 0000.0001)                 5.650000000000000E+02,      /* K = 13 */
(PID.TID 0000.0001)                 6.150000000000000E+02,      /* K = 14 */
(PID.TID 0000.0001)                 6.650000000000000E+02,      /* K = 15 */
(PID.TID 0000.0001)                 3.450000000000000E+02       /* K = 16 */
(PID.TID 0000.0001)     ;
(PID.TID 0000.0001) drF =   /* W spacing ( units of r ) */
(PID.TID 0000.0001)                 5.000000000000000E+01,      /* K =  1 */
(PID.TID 0000.0001)                 7.000000000000000E+01,      /* K =  2 */
(PID.TID 0000.0001)                 1.000000000000000E+02,      /* K =  3 */
(PID.TID 0000.0001)                 1.400000000000000E+02,      /* K =  4 */
(PID.TID 0000.0001)                 1.900000000000000E+02,      /* K =  5 */
(PID.TID 0000.0001)                 2.400000000000000E+02,      /* K =  6 */
(PID.TID 0000.0001)                 2.900000000000000E+02,      /* K =  7 */
(PID.TID 0000.0001)                 3.400000000000000E+02,      /* K =  8 */
(PID.TID 0000.0001)                 3.900000000000000E+02,      /* K =  9 */
(PID.TID 0000.0001)                 4.400000000000000E+02,      /* K = 10 */
(PID.TID 0000.0001)                 4.900000000000000E+02,      /* K = 11 */
(PID.TID 0000.0001)                 5.400000000000000E+02,      /* K = 12 */
(PID.TID 0000.0001)                 5.900000000000000E+02,      /* K = 13 */
(PID.TID 0000.0001)                 6.400000000000000E+02,      /* K = 14 */
(PID.TID 0000.0001)                 6.900000000000000E+02       /* K = 15 */
(PID.TID 0000.0001)     ;
(PID.TID 0000.0001) radius_fromHorizGrid = /* sphere Radius of input horiz. grid */
(PID.TID 0000.0001)                 6.370000000000000E+06
(PID.TID 0000.0001)     ;
(PID.TID 0000.0001) rSphere =  /* Radius ( ignored - cartesian, m - spherical ) */
(PID.TID 0000.0001)                 6.370000000000000E+06
(PID.TID 0000.0001)     ;
(PID.TID 0000.0001) deepAtmosphere = /* Deep/Shallow Atmosphere flag (True/False) */
(PID.TID 0000.0001)                   F
(PID.TID 0000.0001)     ;
(PID.TID 0000.0001) xC =  /* xC(:,1,:,1) : P-point X coord ( deg. or m if cartesian) */
(PID.TID 0000.0001)                -4.439521994760536E+01,      /* I =  1 */
(PID.TID 0000.0001)                -4.295641272275883E+01,      /* I =  2 */
(PID.TID 0000.0001)                -4.122055553388957E+01,      /* I =  3 */
(PID.TID 0000.0001)                -3.923446288487304E+01,      /* I =  4 */
(PID.TID 0000.0001)                -3.702585158682200E+01,      /* I =  5 */
(PID.TID 0000.0001)                -3.461179367094151E+01,      /* I =  6 */
(PID.TID 0000.0001)                -3.200434569041793E+01,      /* I =  7 */
(PID.TID 0000.0001)                -2.921355965632675E+01,      /* I =  8 */
(PID.TID 0000.0001)                -2.624932223028290E+01,      /* I =  9 */
(PID.TID 0000.0001)                -2.312261250426344E+01,      /* I = 10 */
(PID.TID 0000.0001)                -1.984640717127058E+01,      /* I = 11 */
(PID.TID 0000.0001)                -1.643630800555134E+01,      /* I = 12 */
(PID.TID 0000.0001)                -1.291089806302069E+01,      /* I = 13 */
(PID.TID 0000.0001)                -9.291807802719402E+00,      /* I = 14 */
(PID.TID 0000.0001)                -5.603475335822332E+00,      /* I = 15 */
(PID.TID 0000.0001)                -1.872608513033445E+00,      /* I = 16 */
(PID.TID 0000.0001)                 1.872608513033445E+00,      /* I = 17 */
(PID.TID 0000.0001)                 5.603475335822332E+00,      /* I = 18 */
(PID.TID 0000.0001)                 9.291807802719402E+00,      /* I = 19 */
(PID.TID 0000.0001)                 1.291089806302069E+01,      /* I = 20 */
(PID.TID 0000.0001)                 1.643630800555134E+01,      /* I = 21 */
(PID.TID 0000.0001)                 1.984640717127058E+01,      /* I = 22 */
(PID.TID 0000.0001)                 2.312261250426344E+01,      /* I = 23 */
(PID.TID 0000.0001)                 2.624932223028290E+01,      /* I = 24 */
(PID.TID 0000.0001)                 2.921355965632675E+01,      /* I = 25 */
(PID.TID 0000.0001)                 3.200434569041793E+01,      /* I = 26 */
(PID.TID 0000.0001)                 3.461179367094151E+01,      /* I = 27 */
(PID.TID 0000.0001)                 3.702585158682200E+01,      /* I = 28 */
(PID.TID 0000.0001)                 3.923446288487304E+01,      /* I = 29 */
(PID.TID 0000.0001)                 4.122055553388957E+01,      /* I = 30 */
(PID.TID 0000.0001)                 4.295641272275883E+01,      /* I = 31 */
(PID.TID 0000.0001)                 4.439521994760536E+01       /* I = 32 */
(PID.TID 0000.0001)     ;
(PID.TID 0000.0001) yC =  /* yC(1,:,1,:) : P-point Y coord ( deg. or m if cartesian) */
(PID.TID 0000.0001)                -3.497677942598243E+01,      /* J =  1 */
(PID.TID 0000.0001)                -3.374005967394886E+01,      /* J =  2 */
(PID.TID 0000.0001)                -3.220655175667454E+01,      /* J =  3 */
(PID.TID 0000.0001)                -3.045756348838641E+01,      /* J =  4 */
(PID.TID 0000.0001)                -2.853728129852918E+01,      /* J =  5 */
(PID.TID 0000.0001)                -2.647426640173173E+01,      /* J =  6 */
(PID.TID 0000.0001)                -2.428936657094636E+01,      /* J =  7 */
(PID.TID 0000.0001)                -2.199915808312262E+01,      /* J =  8 */
(PID.TID 0000.0001)                -1.961768597440146E+01,      /* J =  9 */
(PID.TID 0000.0001)                -1.715743888281371E+01,      /* J = 10 */
(PID.TID 0000.0001)                -1.462993396899330E+01,      /* J = 11 */
(PID.TID 0000.0001)                -1.204608340464756E+01,      /* J = 12 */
(PID.TID 0000.0001)                -9.416429130284818E+00,      /* J = 13 */
(PID.TID 0000.0001)                -6.751293662992216E+00,      /* J = 14 */
(PID.TID 0000.0001)                -4.060875511835959E+00,      /* J = 15 */
(PID.TID 0000.0001)                -1.355307764409121E+00,      /* J = 16 */
(PID.TID 0000.0001)                 1.355307764409121E+00,      /* J = 17 */
(PID.TID 0000.0001)                 4.060875511835959E+00,      /* J = 18 */
(PID.TID 0000.0001)                 6.751293662992216E+00,      /* J = 19 */
(PID.TID 0000.0001)                 9.416429130284818E+00,      /* J = 20 */
(PID.TID 0000.0001)                 1.204608340464756E+01,      /* J = 21 */
(PID.TID 0000.0001)                 1.462993396899330E+01,      /* J = 22 */
(PID.TID 0000.0001)                 1.715743888281371E+01,      /* J = 23 */
(PID.TID 0000.0001)                 1.961768597440146E+01,      /* J = 24 */
(PID.TID 0000.0001)                 2.199915808312262E+01,      /* J = 25 */
(PID.TID 0000.0001)                 2.428936657094636E+01,      /* J = 26 */
(PID.TID 0000.0001)                 2.647426640173173E+01,      /* J = 27 */
(PID.TID 0000.0001)                 2.853728129852918E+01,      /* J = 28 */
(PID.TID 0000.0001)                 3.045756348838641E+01,      /* J = 29 */
(PID.TID 0000.0001)                 3.220655175667454E+01,      /* J = 30 */
(PID.TID 0000.0001)                 3.374005967394886E+01,      /* J = 31 */
(PID.TID 0000.0001)                 3.497677942598243E+01       /* J = 32 */
(PID.TID 0000.0001)     ;
(PID.TID 0000.0001) rcoord = /* P-point R coordinate (  units of r ) */
(PID.TID 0000.0001)                -2.500000000000000E+01,      /* K =  1 */
(PID.TID 0000.0001)                -8.500000000000000E+01,      /* K =  2 */
(PID.TID 0000.0001)                -1.700000000000000E+02,      /* K =  3 */
(PID.TID 0000.0001)                -2.900000000000000E+02,      /* K =  4 */
(PID.TID 0000.0001)                -4.550000000000000E+02,      /* K =  5 */
(PID.TID 0000.0001)                -6.700000000000000E+02,      /* K =  6 */
(PID.TID 0000.0001)                -9.350000000000000E+02,      /* K =  7 */
(PID.TID 0000.0001)                -1.250000000000000E+03,      /* K =  8 */
(PID.TID 0000.0001)                -1.615000000000000E+03,      /* K =  9 */
(PID.TID 0000.0001)                -2.030000000000000E+03,      /* K = 10 */
(PID.TID 0000.0001)                -2.495000000000000E+03,      /* K = 11 */
(PID.TID 0000.0001)                -3.010000000000000E+03,      /* K = 12 */
(PID.TID 0000.0001)                -3.575000000000000E+03,      /* K = 13 */
(PID.TID 0000.0001)                -4.190000000000000E+03,      /* K = 14 */
(PID.TID 0000.0001)                -4.855000000000000E+03       /* K = 15 */
(PID.TID 0000.0001)     ;
(PID.TID 0000.0001) rF =   /* W-Interf. R coordinate (  units of r ) */
(PID.TID 0000.0001)                 0.000000000000000E+00,      /* K =  1 */
(PID.TID 0000.0001)                -5.000000000000000E+01,      /* K =  2 */
(PID.TID 0000.0001)                -1.200000000000000E+02,      /* K =  3 */
(PID.TID 0000.0001)                -2.200000000000000E+02,      /* K =  4 */
(PID.TID 0000.0001)                -3.600000000000000E+02,      /* K =  5 */
(PID.TID 0000.0001)                -5.500000000000000E+02,      /* K =  6 */
(PID.TID 0000.0001)                -7.900000000000000E+02,      /* K =  7 */
(PID.TID 0000.0001)                -1.080000000000000E+03,      /* K =  8 */
(PID.TID 0000.0001)                -1.420000000000000E+03,      /* K =  9 */
(PID.TID 0000.0001)                -1.810000000000000E+03,      /* K = 10 */
(PID.TID 0000.0001)                -2.250000000000000E+03,      /* K = 11 */
(PID.TID 0000.0001)                -2.740000000000000E+03,      /* K = 12 */
(PID.TID 0000.0001)                -3.280000000000000E+03,      /* K = 13 */
(PID.TID 0000.0001)                -3.870000000000000E+03,      /* K = 14 */
(PID.TID 0000.0001)                -4.510000000000000E+03,      /* K = 15 */
(PID.TID 0000.0001)                -5.200000000000000E+03       /* K = 16 */
(PID.TID 0000.0001)     ;
(PID.TID 0000.0001) deepFacC = /* deep-model grid factor @ cell-Center (-) */
(PID.TID 0000.0001)    15 @  1.000000000000000E+00              /* K =  1: 15 */
(PID.TID 0000.0001)     ;
(PID.TID 0000.0001) deepFacF = /* deep-model grid factor @ W-Interface (-) */
(PID.TID 0000.0001)    16 @  1.000000000000000E+00              /* K =  1: 16 */
(PID.TID 0000.0001)     ;
(PID.TID 0000.0001) rVel2wUnit = /* convert units: rVel -> wSpeed (=1 if z-coord)*/
(PID.TID 0000.0001)    16 @  1.000000000000000E+00              /* K =  1: 16 */
(PID.TID 0000.0001)     ;
(PID.TID 0000.0001) wUnit2rVel = /* convert units: wSpeed -> rVel (=1 if z-coord)*/
(PID.TID 0000.0001)    16 @  1.000000000000000E+00              /* K =  1: 16 */
(PID.TID 0000.0001)     ;
(PID.TID 0000.0001) dBdrRef = /* Vertical grad. of reference buoyancy [(m/s/r)^2] */
(PID.TID 0000.0001)    15 @  0.000000000000000E+00              /* K =  1: 15 */
(PID.TID 0000.0001)     ;
(PID.TID 0000.0001) rotateGrid = /* use rotated grid ( True/False ) */
(PID.TID 0000.0001)                   F
(PID.TID 0000.0001)     ;
(PID.TID 0000.0001) phiEuler = /* Euler angle, rotation about original z-coordinate [rad] */
(PID.TID 0000.0001)                 0.000000000000000E+00
(PID.TID 0000.0001)     ;
(PID.TID 0000.0001) thetaEuler = /* Euler angle, rotation about new x-coordinate [rad] */
(PID.TID 0000.0001)                 0.000000000000000E+00
(PID.TID 0000.0001)     ;
(PID.TID 0000.0001) psiEuler = /* Euler angle, rotation about new z-coordinate [rad] */
(PID.TID 0000.0001)                 0.000000000000000E+00
(PID.TID 0000.0001)     ;
(PID.TID 0000.0001) dxF =  /* dxF(:,1,:,1) ( units: m ) */
(PID.TID 0000.0001)                 1.202082051331828E+05,      /* I =  1 */
(PID.TID 0000.0001)                 1.563594089971120E+05,      /* I =  2 */
(PID.TID 0000.0001)                 1.835530058121492E+05,      /* I =  3 */
(PID.TID 0000.0001)                 2.045883481718707E+05,      /* I =  4 */
(PID.TID 0000.0001)                 2.218350349844185E+05,      /* I =  5 */
(PID.TID 0000.0001)                 2.364352994647058E+05,      /* I =  6 */
(PID.TID 0000.0001)                 2.490022710862746E+05,      /* I =  7 */
(PID.TID 0000.0001)                 2.598919724358304E+05,      /* I =  8 */
(PID.TID 0000.0001)                 2.693210245495156E+05,      /* I =  9 */
(PID.TID 0000.0001)                 2.774243179696503E+05,      /* I = 10 */
(PID.TID 0000.0001)                 2.842862532064524E+05,      /* I = 11 */
(PID.TID 0000.0001)                 2.899590699694043E+05,      /* I = 12 */
(PID.TID 0000.0001)                 2.944742915095688E+05,      /* I = 13 */
(PID.TID 0000.0001)                 2.978501920522794E+05,      /* I = 14 */
(PID.TID 0000.0001)                 3.000967749619962E+05,      /* I = 15 */
(PID.TID 0000.0001)     2 @  3.012190981969055E+05,             /* I = 16: 17 */
(PID.TID 0000.0001)                 3.000967749619962E+05,      /* I = 18 */
(PID.TID 0000.0001)                 2.978501920522794E+05,      /* I = 19 */
(PID.TID 0000.0001)                 2.944742915095688E+05,      /* I = 20 */
(PID.TID 0000.0001)                 2.899590699694043E+05,      /* I = 21 */
(PID.TID 0000.0001)                 2.842862532064524E+05,      /* I = 22 */
(PID.TID 0000.0001)                 2.774243179696503E+05,      /* I = 23 */
(PID.TID 0000.0001)                 2.693210245495156E+05,      /* I = 24 */
(PID.TID 0000.0001)                 2.598919724358304E+05,      /* I = 25 */
(PID.TID 0000.0001)                 2.490022710862746E+05,      /* I = 26 */
(PID.TID 0000.0001)                 2.364352994647058E+05,      /* I = 27 */
(PID.TID 0000.0001)                 2.218350349844185E+05,      /* I = 28 */
(PID.TID 0000.0001)                 2.045883481718707E+05,      /* I = 29 */
(PID.TID 0000.0001)                 1.835530058121492E+05,      /* I = 30 */
(PID.TID 0000.0001)                 1.563594089971120E+05,      /* I = 31 */
(PID.TID 0000.0001)                 1.202082051331828E+05       /* I = 32 */
(PID.TID 0000.0001)     ;
(PID.TID 0000.0001) dxF =  /* dxF(1,:,1,:) ( units: m ) */
(PID.TID 0000.0001)                 1.202082051331828E+05,      /* J =  1 */
(PID.TID 0000.0001)                 1.572908084538706E+05,      /* J =  2 */
(PID.TID 0000.0001)                 1.840412227747703E+05,      /* J =  3 */
(PID.TID 0000.0001)                 2.048868197919576E+05,      /* J =  4 */
(PID.TID 0000.0001)                 2.220405216043041E+05,      /* J =  5 */
(PID.TID 0000.0001)                 2.365892017348392E+05,      /* J =  6 */
(PID.TID 0000.0001)                 2.491250781852558E+05,      /* J =  7 */
(PID.TID 0000.0001)                 2.599949918261881E+05,      /* J =  8 */
(PID.TID 0000.0001)                 2.694110134598581E+05,      /* J =  9 */
(PID.TID 0000.0001)                 2.775055554645015E+05,      /* J = 10 */
(PID.TID 0000.0001)                 2.843615645344775E+05,      /* J = 11 */
(PID.TID 0000.0001)                 2.900303768613599E+05,      /* J = 12 */
(PID.TID 0000.0001)                 2.945429307892709E+05,      /* J = 13 */
(PID.TID 0000.0001)                 2.979171143158405E+05,      /* J = 14 */
(PID.TID 0000.0001)                 3.001626787528886E+05,      /* J = 15 */
(PID.TID 0000.0001)     2 @  3.012844832048790E+05,             /* J = 16: 17 */
(PID.TID 0000.0001)                 3.001626787528886E+05,      /* J = 18 */
(PID.TID 0000.0001)                 2.979171143158405E+05,      /* J = 19 */
(PID.TID 0000.0001)                 2.945429307892709E+05,      /* J = 20 */
(PID.TID 0000.0001)                 2.900303768613599E+05,      /* J = 21 */
(PID.TID 0000.0001)                 2.843615645344775E+05,      /* J = 22 */
(PID.TID 0000.0001)                 2.775055554645015E+05,      /* J = 23 */
(PID.TID 0000.0001)                 2.694110134598581E+05,      /* J = 24 */
(PID.TID 0000.0001)                 2.599949918261881E+05,      /* J = 25 */
(PID.TID 0000.0001)                 2.491250781852558E+05,      /* J = 26 */
(PID.TID 0000.0001)                 2.365892017348392E+05,      /* J = 27 */
(PID.TID 0000.0001)                 2.220405216043041E+05,      /* J = 28 */
(PID.TID 0000.0001)                 2.048868197919576E+05,      /* J = 29 */
(PID.TID 0000.0001)                 1.840412227747703E+05,      /* J = 30 */
(PID.TID 0000.0001)                 1.572908084538706E+05,      /* J = 31 */
(PID.TID 0000.0001)                 1.202082051331828E+05       /* J = 32 */
(PID.TID 0000.0001)     ;
(PID.TID 0000.0001) dyF =  /* dyF(:,1,:,1) ( units: m ) */
(PID.TID 0000.0001)                 1.202082051331828E+05,      /* I =  1 */
(PID.TID 0000.0001)                 1.572908084538706E+05,      /* I =  2 */
(PID.TID 0000.0001)                 1.840412227747703E+05,      /* I =  3 */
(PID.TID 0000.0001)                 2.048868197919576E+05,      /* I =  4 */
(PID.TID 0000.0001)                 2.220405216043041E+05,      /* I =  5 */
(PID.TID 0000.0001)                 2.365892017348392E+05,      /* I =  6 */
(PID.TID 0000.0001)                 2.491250781852558E+05,      /* I =  7 */
(PID.TID 0000.0001)                 2.599949918261881E+05,      /* I =  8 */
(PID.TID 0000.0001)                 2.694110134598581E+05,      /* I =  9 */
(PID.TID 0000.0001)                 2.775055554645015E+05,      /* I = 10 */
(PID.TID 0000.0001)                 2.843615645344775E+05,      /* I = 11 */
(PID.TID 0000.0001)                 2.900303768613599E+05,      /* I = 12 */
(PID.TID 0000.0001)                 2.945429307892709E+05,      /* I = 13 */
(PID.TID 0000.0001)                 2.979171143158405E+05,      /* I = 14 */
(PID.TID 0000.0001)                 3.001626787528886E+05,      /* I = 15 */
(PID.TID 0000.0001)     2 @  3.012844832048790E+05,             /* I = 16: 17 */
(PID.TID 0000.0001)                 3.001626787528886E+05,      /* I = 18 */
(PID.TID 0000.0001)                 2.979171143158405E+05,      /* I = 19 */
(PID.TID 0000.0001)                 2.945429307892709E+05,      /* I = 20 */
(PID.TID 0000.0001)                 2.900303768613599E+05,      /* I = 21 */
(PID.TID 0000.0001)                 2.843615645344775E+05,      /* I = 22 */
(PID.TID 0000.0001)                 2.775055554645015E+05,      /* I = 23 */
(PID.TID 0000.0001)                 2.694110134598581E+05,      /* I = 24 */
[...]
(PID.TID 0000.0001) %MON dynstat_theta_min            =  -3.0165903897678E+00
(PID.TID 0000.0001) %MON dynstat_theta_mean           =   3.9089606596093E+00
(PID.TID 0000.0001) %MON dynstat_theta_sd             =   4.5706604531455E+00
(PID.TID 0000.0001) %MON dynstat_theta_del2           =   2.6541042388245E-03
(PID.TID 0000.0001) %MON dynstat_salt_max             =   4.1376544457963E+01
(PID.TID 0000.0001) %MON dynstat_salt_min             =   1.8518418516709E+01
(PID.TID 0000.0001) %MON dynstat_salt_mean            =   3.4772180941632E+01
(PID.TID 0000.0001) %MON dynstat_salt_sd              =   5.3095896147505E-01
(PID.TID 0000.0001) %MON dynstat_salt_del2            =   8.0534357099336E-04
(PID.TID 0000.0001) %MON dynstat_sst_max              =   3.0925120209153E+01
(PID.TID 0000.0001) %MON dynstat_sst_min              =  -1.8998513785527E+00
(PID.TID 0000.0001) %MON dynstat_sst_mean             =   1.8100745053822E+01
(PID.TID 0000.0001) %MON dynstat_sst_sd               =   9.7999812526788E+00
(PID.TID 0000.0001) %MON dynstat_sst_del2             =   1.5315381153775E-02
(PID.TID 0000.0001) %MON dynstat_sss_max              =   4.1376544457963E+01
(PID.TID 0000.0001) %MON dynstat_sss_min              =   1.8751370372883E+01
(PID.TID 0000.0001) %MON dynstat_sss_mean             =   3.4640757051016E+01
(PID.TID 0000.0001) %MON dynstat_sss_sd               =   1.4576752893531E+00
(PID.TID 0000.0001) %MON dynstat_sss_del2             =   8.0533525858606E-03
(PID.TID 0000.0001) %MON forcing_qnet_max             =   2.1258222656250E+04
(PID.TID 0000.0001) %MON forcing_qnet_min             =  -8.9276259765625E+03
(PID.TID 0000.0001) %MON forcing_qnet_mean            =  -1.4716716915477E+02
(PID.TID 0000.0001) %MON forcing_qnet_sd              =   7.2961130915617E+02
(PID.TID 0000.0001) %MON forcing_qnet_del2            =   2.6391315502559E+01
(PID.TID 0000.0001) %MON forcing_qsw_max              =   0.0000000000000E+00
(PID.TID 0000.0001) %MON forcing_qsw_min              =   0.0000000000000E+00
(PID.TID 0000.0001) %MON forcing_qsw_mean             =   0.0000000000000E+00
(PID.TID 0000.0001) %MON forcing_qsw_sd               =   0.0000000000000E+00
(PID.TID 0000.0001) %MON forcing_qsw_del2             =   0.0000000000000E+00
(PID.TID 0000.0001) %MON forcing_empmr_max            =   2.4451822042465E-02
(PID.TID 0000.0001) %MON forcing_empmr_min            =  -5.8808165788651E-01
(PID.TID 0000.0001) %MON forcing_empmr_mean           =  -6.4321620328176E-04
(PID.TID 0000.0001) %MON forcing_empmr_sd             =   1.1769894044589E-02
(PID.TID 0000.0001) %MON forcing_empmr_del2           =   4.6672488975701E-04
(PID.TID 0000.0001) %MON forcing_fu_max               =   5.6346533419467E-01
(PID.TID 0000.0001) %MON forcing_fu_min               =  -4.3181161802186E-01
(PID.TID 0000.0001) %MON forcing_fu_mean              =  -4.0123567798204E-03
(PID.TID 0000.0001) %MON forcing_fu_sd                =   6.7976379318755E-02
(PID.TID 0000.0001) %MON forcing_fu_del2              =   6.7433384596802E-04
(PID.TID 0000.0001) %MON forcing_fv_max               =   3.1438595575216E-01
(PID.TID 0000.0001) %MON forcing_fv_min               =  -3.1472663669592E-01
(PID.TID 0000.0001) %MON forcing_fv_mean              =  -1.3044037006942E-02
(PID.TID 0000.0001) %MON forcing_fv_sd                =   6.5077964518834E-02
(PID.TID 0000.0001) %MON forcing_fv_del2              =   5.4246701088047E-04
(PID.TID 0000.0001) %MON trAdv_CFL_u_max              =   9.8508465461600E-05
(PID.TID 0000.0001) %MON trAdv_CFL_v_max              =   1.4824147301898E-04
(PID.TID 0000.0001) %MON trAdv_CFL_w_max              =   2.5003176241599E-04
(PID.TID 0000.0001) %MON advcfl_uvel_max              =   1.0469586184342E-04
(PID.TID 0000.0001) %MON advcfl_vvel_max              =   8.6110312511958E-05
(PID.TID 0000.0001) %MON advcfl_wvel_max              =   5.6819483853769E-04
(PID.TID 0000.0001) %MON advcfl_W_hf_max              =   2.5003176241599E-04
(PID.TID 0000.0001) %MON pe_b_mean                    =   5.4463973657856E-04
(PID.TID 0000.0001) %MON ke_max                       =   5.4985304416835E-01
(PID.TID 0000.0001) %MON ke_mean                      =   1.6538541115417E-04
(PID.TID 0000.0001) %MON ke_vol                       =   1.3398062229150E+18
(PID.TID 0000.0001) %MON vort_r_min                   =  -3.2623319845726E-06
(PID.TID 0000.0001) %MON vort_r_max                   =   3.2408326126608E-06
(PID.TID 0000.0001) %MON vort_a_mean                  =  -2.0549865324846E-05
(PID.TID 0000.0001) %MON vort_a_sd                    =   7.5259527657843E-05
(PID.TID 0000.0001) %MON vort_p_mean                  =  -2.4783416274405E-05
(PID.TID 0000.0001) %MON vort_p_sd                    =   1.2811954568249E-04
(PID.TID 0000.0001) %MON surfExpan_theta_mean         =  -6.9417889429432E-06
(PID.TID 0000.0001) %MON surfExpan_salt_mean          =   8.5264563379119E-07
(PID.TID 0000.0001) // =======================================================
(PID.TID 0000.0001) // End MONITOR dynamic field statistics
(PID.TID 0000.0001) // =======================================================
 cg2d: Sum(rhs),rhsMax =  -5.45792740963731E+00  2.12773681105135E+05
(PID.TID 0000.0001)      cg2d_init_res =   6.66682723819304E-03
(PID.TID 0000.0001)      cg2d_iters(min,last) =      -1       1
(PID.TID 0000.0001)      cg2d_last_res =   6.26090078528542E-08
(PID.TID 0000.0001) // =======================================================
(PID.TID 0000.0001) // Begin MONITOR dynamic field statistics
(PID.TID 0000.0001) // =======================================================
(PID.TID 0000.0001) %MON time_tsnumber                =                 72140
(PID.TID 0000.0001) %MON time_secondsf                =   1.8035000000000E+06
(PID.TID 0000.0001) %MON dynstat_eta_max              =   7.8986074730396E+00
(PID.TID 0000.0001) %MON dynstat_eta_min              =  -1.6196986557479E+00
(PID.TID 0000.0001) %MON dynstat_eta_mean             =   1.0412183999022E-02
(PID.TID 0000.0001) %MON dynstat_eta_sd               =   6.3918420593956E-01
(PID.TID 0000.0001) %MON dynstat_eta_del2             =   6.8002103026178E-03
(PID.TID 0000.0001) %MON dynstat_uvel_max             =   1.1374744039586E+00
(PID.TID 0000.0001) %MON dynstat_uvel_min             =  -5.6425628059005E-01
(PID.TID 0000.0001) %MON dynstat_uvel_mean            =  -4.0746803853068E-04
(PID.TID 0000.0001) %MON dynstat_uvel_sd              =   1.3106316205916E-02
(PID.TID 0000.0001) %MON dynstat_uvel_del2            =   1.0828988783146E-04
(PID.TID 0000.0001) %MON dynstat_vvel_max             =   9.5558420611927E-01
(PID.TID 0000.0001) %MON dynstat_vvel_min             =  -9.3816867866053E-01
(PID.TID 0000.0001) %MON dynstat_vvel_mean            =  -3.6571071015221E-04
(PID.TID 0000.0001) %MON dynstat_vvel_sd              =   1.3660156481159E-02
(PID.TID 0000.0001) %MON dynstat_vvel_del2            =   1.5013443514918E-04
(PID.TID 0000.0001) %MON dynstat_wvel_max             =   1.0382149031217E-04
(PID.TID 0000.0001) %MON dynstat_wvel_min             =  -1.0826317474266E-03
(PID.TID 0000.0001) %MON dynstat_wvel_mean            =  -2.8746828769155E-07
(PID.TID 0000.0001) %MON dynstat_wvel_sd              =   1.1790471878569E-05
(PID.TID 0000.0001) %MON dynstat_wvel_del2            =   1.0336278638756E-07
(PID.TID 0000.0001) %MON dynstat_theta_max            =   3.0925114226371E+01
(PID.TID 0000.0001) %MON dynstat_theta_min            =  -3.0165668022036E+00
(PID.TID 0000.0001) %MON dynstat_theta_mean           =   3.9089609778529E+00
(PID.TID 0000.0001) %MON dynstat_theta_sd             =   4.5706615021958E+00
(PID.TID 0000.0001) %MON dynstat_theta_del2           =   2.6540917808798E-03
(PID.TID 0000.0001) %MON dynstat_salt_max             =   4.1376530033370E+01
(PID.TID 0000.0001) %MON dynstat_salt_min             =   1.8518418783923E+01
(PID.TID 0000.0001) %MON dynstat_salt_mean            =   3.4772180739615E+01
(PID.TID 0000.0001) %MON dynstat_salt_sd              =   5.3095935793704E-01
(PID.TID 0000.0001) %MON dynstat_salt_del2            =   8.0539340981690E-04
(PID.TID 0000.0001) %MON dynstat_sst_max              =   3.0925114226371E+01
(PID.TID 0000.0001) %MON dynstat_sst_min              =  -1.8998502394496E+00
(PID.TID 0000.0001) %MON dynstat_sst_mean             =   1.8100763073208E+01
(PID.TID 0000.0001) %MON dynstat_sst_sd               =   9.7999860352933E+00
(PID.TID 0000.0001) %MON dynstat_sst_del2             =   1.5315085196029E-02
(PID.TID 0000.0001) %MON dynstat_sss_max              =   4.1376530033370E+01
(PID.TID 0000.0001) %MON dynstat_sss_min              =   1.8751370414226E+01
(PID.TID 0000.0001) %MON dynstat_sss_mean             =   3.4640742609651E+01
(PID.TID 0000.0001) %MON dynstat_sss_sd               =   1.4576844445840E+00
(PID.TID 0000.0001) %MON dynstat_sss_del2             =   8.0541368350271E-03
(PID.TID 0000.0001) %MON forcing_qnet_max             =   2.0946298828125E+04
(PID.TID 0000.0001) %MON forcing_qnet_min             =  -8.8886416015625E+03
(PID.TID 0000.0001) %MON forcing_qnet_mean            =  -1.4619926835717E+02
(PID.TID 0000.0001) %MON forcing_qnet_sd              =   7.2131863609988E+02
(PID.TID 0000.0001) %MON forcing_qnet_del2            =   2.6057116006876E+01
(PID.TID 0000.0001) %MON forcing_qsw_max              =   0.0000000000000E+00
(PID.TID 0000.0001) %MON forcing_qsw_min              =   0.0000000000000E+00
(PID.TID 0000.0001) %MON forcing_qsw_mean             =   0.0000000000000E+00
(PID.TID 0000.0001) %MON forcing_qsw_sd               =   0.0000000000000E+00
(PID.TID 0000.0001) %MON forcing_qsw_del2             =   0.0000000000000E+00
(PID.TID 0000.0001) %MON forcing_empmr_max            =   2.4286689236760E-02
(PID.TID 0000.0001) %MON forcing_empmr_min            =  -5.8666622638702E-01
(PID.TID 0000.0001) %MON forcing_empmr_mean           =  -6.4279628030466E-04
(PID.TID 0000.0001) %MON forcing_empmr_sd             =   1.1750361221248E-02
(PID.TID 0000.0001) %MON forcing_empmr_del2           =   4.6596487481942E-04
(PID.TID 0000.0001) %MON forcing_fu_max               =   5.6346533419467E-01
(PID.TID 0000.0001) %MON forcing_fu_min               =  -4.3181161802186E-01
(PID.TID 0000.0001) %MON forcing_fu_mean              =  -4.0123567798204E-03
(PID.TID 0000.0001) %MON forcing_fu_sd                =   6.7976379318755E-02
(PID.TID 0000.0001) %MON forcing_fu_del2              =   6.7433384596802E-04
(PID.TID 0000.0001) %MON forcing_fv_max               =   3.1438595575216E-01
(PID.TID 0000.0001) %MON forcing_fv_min               =  -3.1472663669592E-01
(PID.TID 0000.0001) %MON forcing_fv_mean              =  -1.3044037006942E-02
(PID.TID 0000.0001) %MON forcing_fv_sd                =   6.5077964518834E-02
(PID.TID 0000.0001) %MON forcing_fv_del2              =   5.4246701088047E-04
(PID.TID 0000.0001) %MON trAdv_CFL_u_max              =   9.9154630868404E-05
(PID.TID 0000.0001) %MON trAdv_CFL_v_max              =   1.4903113108374E-04
(PID.TID 0000.0001) %MON trAdv_CFL_w_max              =   2.4926001020137E-04
(PID.TID 0000.0001) %MON advcfl_uvel_max              =   1.0536699133833E-04
(PID.TID 0000.0001) %MON advcfl_vvel_max              =   8.6622773145885E-05
(PID.TID 0000.0001) %MON advcfl_wvel_max              =   5.6682727187152E-04
(PID.TID 0000.0001) %MON advcfl_W_hf_max              =   2.4926001020137E-04
(PID.TID 0000.0001) %MON pe_b_mean                    =   5.4441557951454E-04
(PID.TID 0000.0001) %MON ke_max                       =   5.5693413887177E-01
(PID.TID 0000.0001) %MON ke_mean                      =   1.6561917029581E-04
(PID.TID 0000.0001) %MON ke_vol                       =   1.3398062285685E+18
(PID.TID 0000.0001) %MON vort_r_min                   =  -3.2825360032301E-06
(PID.TID 0000.0001) %MON vort_r_max                   =   3.2597240851969E-06
(PID.TID 0000.0001) %MON vort_a_mean                  =  -2.0549865324846E-05
(PID.TID 0000.0001) %MON vort_a_sd                    =   7.5259527740807E-05
(PID.TID 0000.0001) %MON vort_p_mean                  =  -2.4783416132488E-05
(PID.TID 0000.0001) %MON vort_p_sd                    =   1.2811954390658E-04
(PID.TID 0000.0001) %MON surfExpan_theta_mean         =  -6.9579325645566E-06
(PID.TID 0000.0001) %MON surfExpan_salt_mean          =   8.5628414475548E-07
(PID.TID 0000.0001) // =======================================================
(PID.TID 0000.0001) // End MONITOR dynamic field statistics
(PID.TID 0000.0001) // =======================================================
 cg2d: Sum(rhs),rhsMax =  -5.47460502489271E+00  2.12441596683494E+05
(PID.TID 0000.0001)      cg2d_init_res =   6.68724602558962E-03
(PID.TID 0000.0001)      cg2d_iters(min,last) =      -1       1
(PID.TID 0000.0001)      cg2d_last_res =   6.28206785850321E-08
(PID.TID 0000.0001) // =======================================================
(PID.TID 0000.0001) // Begin MONITOR dynamic field statistics
(PID.TID 0000.0001) // =======================================================
(PID.TID 0000.0001) %MON time_tsnumber                =                 72141
(PID.TID 0000.0001) %MON time_secondsf                =   1.8035250000000E+06
(PID.TID 0000.0001) %MON dynstat_eta_max              =   7.8835563986714E+00
(PID.TID 0000.0001) %MON dynstat_eta_min              =  -1.6197376099286E+00
(PID.TID 0000.0001) %MON dynstat_eta_mean             =   1.0427699808477E-02
(PID.TID 0000.0001) %MON dynstat_eta_sd               =   6.3905263206907E-01
(PID.TID 0000.0001) %MON dynstat_eta_del2             =   6.7786635217563E-03
(PID.TID 0000.0001) %MON dynstat_uvel_max             =   1.1447007603069E+00
(PID.TID 0000.0001) %MON dynstat_uvel_min             =  -5.6686803627166E-01
(PID.TID 0000.0001) %MON dynstat_uvel_mean            =  -4.0660600823619E-04
(PID.TID 0000.0001) %MON dynstat_uvel_sd              =   1.3116539876571E-02
(PID.TID 0000.0001) %MON dynstat_uvel_del2            =   1.0875354835979E-04
(PID.TID 0000.0001) %MON dynstat_vvel_max             =   9.6121416359742E-01
(PID.TID 0000.0001) %MON dynstat_vvel_min             =  -9.4408024495370E-01
(PID.TID 0000.0001) %MON dynstat_vvel_mean            =  -3.6548264363058E-04
(PID.TID 0000.0001) %MON dynstat_vvel_sd              =   1.3668851811905E-02
(PID.TID 0000.0001) %MON dynstat_vvel_del2            =   1.5082498563387E-04
(PID.TID 0000.0001) %MON dynstat_wvel_max             =   1.0382754410630E-04
(PID.TID 0000.0001) %MON dynstat_wvel_min             =  -1.0830158911100E-03
(PID.TID 0000.0001) %MON dynstat_wvel_mean            =  -2.8955718370244E-07
(PID.TID 0000.0001) %MON dynstat_wvel_sd              =   1.1808798378114E-05
(PID.TID 0000.0001) %MON dynstat_wvel_del2            =   1.0342235587513E-07
(PID.TID 0000.0001) %MON dynstat_theta_max            =   3.0925108244319E+01
(PID.TID 0000.0001) %MON dynstat_theta_min            =  -3.0165429809434E+00
(PID.TID 0000.0001) %MON dynstat_theta_mean           =   3.9089612944578E+00
(PID.TID 0000.0001) %MON dynstat_theta_sd             =   4.5706625459417E+00
(PID.TID 0000.0001) %MON dynstat_theta_del2           =   2.6540793802465E-03
(PID.TID 0000.0001) %MON dynstat_salt_max             =   4.1376515414951E+01
(PID.TID 0000.0001) %MON dynstat_salt_min             =   1.8518419051106E+01
(PID.TID 0000.0001) %MON dynstat_salt_mean            =   3.4772180537835E+01
(PID.TID 0000.0001) %MON dynstat_salt_sd              =   5.3095975502473E-01
(PID.TID 0000.0001) %MON dynstat_salt_del2            =   8.0544362079010E-04
(PID.TID 0000.0001) %MON dynstat_sst_max              =   3.0925108244319E+01
(PID.TID 0000.0001) %MON dynstat_sst_min              =  -1.8998490986436E+00
(PID.TID 0000.0001) %MON dynstat_sst_mean             =   1.8100780953156E+01
(PID.TID 0000.0001) %MON dynstat_sst_sd               =   9.7999908304931E+00
(PID.TID 0000.0001) %MON dynstat_sst_del2             =   1.5314790838874E-02
(PID.TID 0000.0001) %MON dynstat_sss_max              =   4.1376515414951E+01
(PID.TID 0000.0001) %MON dynstat_sss_min              =   1.8751370455558E+01
(PID.TID 0000.0001) %MON dynstat_sss_mean             =   3.4640728183185E+01
(PID.TID 0000.0001) %MON dynstat_sss_sd               =   1.4576936164087E+00
(PID.TID 0000.0001) %MON dynstat_sss_del2             =   8.0549269160400E-03
(PID.TID 0000.0001) %MON forcing_qnet_max             =   2.0634373046875E+04
(PID.TID 0000.0001) %MON forcing_qnet_min             =  -8.8399101562500E+03
(PID.TID 0000.0001) %MON forcing_qnet_mean            =  -1.4521926200121E+02
(PID.TID 0000.0001) %MON forcing_qnet_sd              =   7.1318180139560E+02
(PID.TID 0000.0001) %MON forcing_qnet_del2            =   2.5733058949656E+01
(PID.TID 0000.0001) %MON forcing_qsw_max              =   0.0000000000000E+00
(PID.TID 0000.0001) %MON forcing_qsw_min              =   0.0000000000000E+00
(PID.TID 0000.0001) %MON forcing_qsw_mean             =   0.0000000000000E+00
(PID.TID 0000.0001) %MON forcing_qsw_sd               =   0.0000000000000E+00
(PID.TID 0000.0001) %MON forcing_qsw_del2             =   0.0000000000000E+00
(PID.TID 0000.0001) %MON forcing_empmr_max            =   2.4121556431055E-02
(PID.TID 0000.0001) %MON forcing_empmr_min            =  -5.8525079488754E-01
(PID.TID 0000.0001) %MON forcing_empmr_mean           =  -6.4235451144570E-04
(PID.TID 0000.0001) %MON forcing_empmr_sd             =   1.1730733836202E-02
(PID.TID 0000.0001) %MON forcing_empmr_del2           =   4.6519813509797E-04
(PID.TID 0000.0001) %MON forcing_fu_max               =   5.6346533419467E-01
(PID.TID 0000.0001) %MON forcing_fu_min               =  -4.3181161802186E-01
(PID.TID 0000.0001) %MON forcing_fu_mean              =  -4.0123567798204E-03
(PID.TID 0000.0001) %MON forcing_fu_sd                =   6.7976379318755E-02
(PID.TID 0000.0001) %MON forcing_fu_del2              =   6.7433384596802E-04
(PID.TID 0000.0001) %MON forcing_fv_max               =   3.1438595575216E-01
(PID.TID 0000.0001) %MON forcing_fv_min               =  -3.1472663669592E-01
(PID.TID 0000.0001) %MON forcing_fv_mean              =  -1.3044037006942E-02
(PID.TID 0000.0001) %MON forcing_fv_sd                =   6.5077964518834E-02
(PID.TID 0000.0001) %MON forcing_fv_del2              =   5.4246701088047E-04
(PID.TID 0000.0001) %MON trAdv_CFL_u_max              =   9.9799413839749E-05
(PID.TID 0000.0001) %MON trAdv_CFL_v_max              =   1.4981498186268E-04
(PID.TID 0000.0001) %MON trAdv_CFL_w_max              =   2.4848871058721E-04
(PID.TID 0000.0001) %MON advcfl_uvel_max              =   1.0603638611690E-04
(PID.TID 0000.0001) %MON advcfl_vvel_max              =   8.7133123281778E-05
(PID.TID 0000.0001) %MON advcfl_wvel_max              =   5.6545970520536E-04
(PID.TID 0000.0001) %MON advcfl_W_hf_max              =   2.4848871058721E-04
(PID.TID 0000.0001) %MON pe_b_mean                    =   5.4419195834969E-04
(PID.TID 0000.0001) %MON ke_max                       =   5.6404155445727E-01
(PID.TID 0000.0001) %MON ke_mean                      =   1.6585217615791E-04
(PID.TID 0000.0001) %MON ke_vol                       =   1.3398062342184E+18
(PID.TID 0000.0001) %MON vort_r_min                   =  -3.3026411870452E-06
(PID.TID 0000.0001) %MON vort_r_max                   =   3.2785269585722E-06
(PID.TID 0000.0001) %MON vort_a_mean                  =  -2.0549865324846E-05
(PID.TID 0000.0001) %MON vort_a_sd                    =   7.5259527823205E-05
(PID.TID 0000.0001) %MON vort_p_mean                  =  -2.4783415990459E-05
(PID.TID 0000.0001) %MON vort_p_sd                    =   1.2811954212548E-04
(PID.TID 0000.0001) %MON surfExpan_theta_mean         =  -6.9740330840620E-06
(PID.TID 0000.0001) %MON surfExpan_salt_mean          =   8.5993997627963E-07
(PID.TID 0000.0001) // =======================================================
(PID.TID 0000.0001) // End MONITOR dynamic field statistics
(PID.TID 0000.0001) // =======================================================
