(PID.TID 0000.0001) 
(PID.TID 0000.0001) // ======================================================
(PID.TID 0000.0001) //                      MITgcm UV
(PID.TID 0000.0001) //                      =========
(PID.TID 0000.0001) // ======================================================
(PID.TID 0000.0001) // execution environment starting up...
(PID.TID 0000.0001) 
(PID.TID 0000.0001) // MITgcmUV version:  checkpoint66l
(PID.TID 0000.0001) // Build user:        estrobac
(PID.TID 0000.0001) // Build host:        borgs159
(PID.TID 0000.0001) // Build date:        Thu Oct 26 10:10:34 EDT 2017
(PID.TID 0000.0001) 
(PID.TID 0000.0001) // =======================================================
(PID.TID 0000.0001) // Execution Environment parameter file "eedata"
(PID.TID 0000.0001) // =======================================================
(PID.TID 0000.0001) ># Example "eedata" file
(PID.TID 0000.0001) ># Lines beginning "#" are comments
(PID.TID 0000.0001) ># nTx - No. threads per process in X
(PID.TID 0000.0001) ># nTy - No. threads per process in Y
(PID.TID 0000.0001) > &EEPARMS
(PID.TID 0000.0001) > useCubedSphereExchange=.TRUE.,
(PID.TID 0000.0001) > nTx=1,
(PID.TID 0000.0001) > nTy=1,
(PID.TID 0000.0001) > &
(PID.TID 0000.0001) 
(PID.TID 0000.0001) // =======================================================
(PID.TID 0000.0001) // Computational Grid Specification ( see files "SIZE.h" )
(PID.TID 0000.0001) //                                  ( and "eedata"       )
(PID.TID 0000.0001) // =======================================================
(PID.TID 0000.0001)      nPx =  360 ; /* No. processes in X */
(PID.TID 0000.0001)      nPy =    1 ; /* No. processes in Y */
(PID.TID 0000.0001)      nSx =    1 ; /* No. tiles in X per process */
(PID.TID 0000.0001)      nSy =    1 ; /* No. tiles in Y per process */
(PID.TID 0000.0001)      sNx =   15 ; /* Tile size in X */
(PID.TID 0000.0001)      sNy =   15 ; /* Tile size in Y */
(PID.TID 0000.0001)      OLx =    4 ; /* Tile overlap distance in X */
(PID.TID 0000.0001)      OLy =    4 ; /* Tile overlap distance in Y */
(PID.TID 0000.0001)      nTx =    1 ; /* No. threads in X per process */
(PID.TID 0000.0001)      nTy =    1 ; /* No. threads in Y per process */
(PID.TID 0000.0001)       Nr =   50 ; /* No. levels in the vertical   */
(PID.TID 0000.0001)       Nx = 5400 ; /* Total domain size in X ( = nPx*nSx*sNx ) */
(PID.TID 0000.0001)       Ny =   15 ; /* Total domain size in Y ( = nPy*nSy*sNy ) */
(PID.TID 0000.0001)   nTiles =    1 ; /* Total no. tiles per process ( = nSx*nSy ) */
(PID.TID 0000.0001)   nProcs =  360 ; /* Total no. processes ( = nPx*nPy ) */
(PID.TID 0000.0001) nThreads =    1 ; /* Total no. threads per process ( = nTx*nTy ) */
(PID.TID 0000.0001) usingMPI =    T ; /* Flag used to control whether MPI is in use */
(PID.TID 0000.0001)                   /*  note: To execute a program with MPI calls */
(PID.TID 0000.0001)                   /*  it must be launched appropriately e.g     */
(PID.TID 0000.0001)                   /*  "mpirun -np 64 ......"                    */
(PID.TID 0000.0001) useCoupler=    F ;/* Flag used to control communications with   */
(PID.TID 0000.0001)                   /*  other model components, through a coupler */
(PID.TID 0000.0001) debugMode =    F ; /* print debug msg. (sequence of S/R calls)  */
(PID.TID 0000.0001) printMapIncludesZeros=    F ; /* print zeros in Std.Output maps */
(PID.TID 0000.0001) maxLengthPrt1D=   65 /* maxLength of 1D array printed to StdOut */
(PID.TID 0000.0001) 
(PID.TID 0000.0001) ======= Starting MPI parallel Run =========
(PID.TID 0000.0001)  My Processor Name (len:  8 ) = borgr073
(PID.TID 0000.0001)  Located at (  0,  0) on processor grid (0:359,0:  0)
(PID.TID 0000.0001)  Origin at  (     1,     1) on global grid (1:  5400,1:    15)
(PID.TID 0000.0001)  North neighbor = processor 0000
(PID.TID 0000.0001)  South neighbor = processor 0000
(PID.TID 0000.0001)   East neighbor = processor 0001
(PID.TID 0000.0001)   West neighbor = processor 0359
(PID.TID 0000.0001) // ======================================================
(PID.TID 0000.0001) // Mapping of tiles to threads
(PID.TID 0000.0001) // ======================================================
(PID.TID 0000.0001) // -o- Thread   1, tiles (   1:   1,   1:   1)
(PID.TID 0000.0001) 
(PID.TID 0000.0001) W2_READPARMS: opening data.exch2
(PID.TID 0000.0001)  OPEN_COPY_DATA_FILE: opening file data.exch2
(PID.TID 0000.0001) // =======================================================
(PID.TID 0000.0001) // Parameter file "data.exch2"
(PID.TID 0000.0001) // =======================================================
(PID.TID 0000.0001) ># EXCH2 Package: Wrapper-2 User Choice
(PID.TID 0000.0001) >#--------------------
(PID.TID 0000.0001) >#  preDefTopol   :: pre-defined Topology selector:
(PID.TID 0000.0001) >#                :: = 0 : topology defined from processing "data.exch2";
(PID.TID 0000.0001) >#                :: = 1 : simple, single facet topology;
(PID.TID 0000.0001) >#                :: = 2 : customized topology (w2_set_myown_facets)
(PID.TID 0000.0001) >#                :: = 3 : 6-facet Cube (3 face-dims: nRed, nGreen, nBlue).
(PID.TID 0000.0001) >#  dimsFacets    :: facet pair of dimensions (n1x,n1y, n2x,n2y ...)
(PID.TID 0000.0001) >#  facetEdgeLink :: Face-Edge connectivity map:
(PID.TID 0000.0001) >#    facetEdgeLink(i,j)=XX.1 : face(j)-edge(i) (i=1,2,3,4 <==> N,S,E,W)
(PID.TID 0000.0001) >#    is connected to Northern edge of face "XX" ; similarly,
(PID.TID 0000.0001) >#    = XX.2 : to Southern.E, XX.3 = Eastern.E, XX.4 = Western.E of face "XX"
(PID.TID 0000.0001) >#  blankList     :: List of "blank" tiles
(PID.TID 0000.0001) >#  W2_mapIO      :: global map IO selector (-1 = old type ; 0 = 1 long line in X
(PID.TID 0000.0001) >#                :: 1 = compact, mostly in Y dir)
(PID.TID 0000.0001) >#  W2_printMsg   :: option for information messages printing
(PID.TID 0000.0001) >#                :: <0 : write to log file ; =0 : minimum print ;
(PID.TID 0000.0001) >#                :: =1 : no duplicated print ; =2 : all processes do print
(PID.TID 0000.0001) >#--------------------
(PID.TID 0000.0001) > &W2_EXCH2_PARM01
(PID.TID 0000.0001) ># W2_printMsg= 0,
(PID.TID 0000.0001) >  W2_mapIO   = 1,
(PID.TID 0000.0001) >#
(PID.TID 0000.0001) >  preDefTopol=0,
(PID.TID 0000.0001) >#-- 5 facets llc_120 topology (drop facet 6 and its connection):
(PID.TID 0000.0001) >  dimsFacets(1:10) = 90, 270, 90, 270, 90, 90, 270, 90, 270, 90,
(PID.TID 0000.0001) >  facetEdgeLink(1:4,1)= 3.4, 0. , 2.4, 5.1,
(PID.TID 0000.0001) >  facetEdgeLink(1:4,2)= 3.2, 0. , 4.2, 1.3,
(PID.TID 0000.0001) >  facetEdgeLink(1:4,3)= 5.4, 2.1, 4.4, 1.1,
(PID.TID 0000.0001) >  facetEdgeLink(1:4,4)= 5.2, 2.3, 0. , 3.3,
(PID.TID 0000.0001) >  facetEdgeLink(1:4,5)= 1.4, 4.1, 0. , 3.1,
(PID.TID 0000.0001) >#-- full 6 facets llc_120 topology (equivalent to default preDefTopol=3):
(PID.TID 0000.0001) ># dimsFacets(1:12) = 120, 360, 120, 360, 120, 120, 360, 120, 360, 120, 120, 120,
(PID.TID 0000.0001) ># facetEdgeLink(1:4,1)= 3.4, 6.1, 2.4, 5.1,
(PID.TID 0000.0001) ># facetEdgeLink(1:4,2)= 3.2, 6.3, 4.2, 1.3,
(PID.TID 0000.0001) ># facetEdgeLink(1:4,3)= 5.4, 2.1, 4.4, 1.1,
(PID.TID 0000.0001) ># facetEdgeLink(1:4,4)= 5.2, 2.3, 6.2, 3.3,
(PID.TID 0000.0001) ># facetEdgeLink(1:4,5)= 1.4, 4.1, 6.4, 3.1,
(PID.TID 0000.0001) ># facetEdgeLink(1:4,6)= 1.2, 4.3, 2.2, 5.3,
(PID.TID 0000.0001) >#
(PID.TID 0000.0001) >#90x30   nprocs = 36
(PID.TID 0000.0001) ># blankList(1:3)=1,10,11,
(PID.TID 0000.0001) >#30x90
(PID.TID 0000.0001) >#
(PID.TID 0000.0001) >#45x30   nprocs = 72
(PID.TID 0000.0001) ># blankList(1:6)=1,2,19,20,21,22
(PID.TID 0000.0001) >#30x45   nprocs = 68
(PID.TID 0000.0001) ># blankList(1:10)=2,3,19,20,21,35,51,60,69,78
(PID.TID 0000.0001) >#45x45   nprocs = 48
(PID.TID 0000.0001) ># blankList(1:4)=2,13,14,23
(PID.TID 0000.0001) >#30x30   nprocs = 96
(PID.TID 0000.0001) ># blankList(1:21)=1,2,3,5,6,28,29,30,31,32,33,49,50,52,53,72,81,90,99,108,117
(PID.TID 0000.0001) >#30x30   nprocs = 112
(PID.TID 0000.0001) ># blankList(1:5)=2,3,28,29,30
(PID.TID 0000.0001) >#15x30   nprocs = 192
(PID.TID 0000.0001) ># blankList(1:42)=1,2,3,4,5,6,9,10,11,12,55,56,57,58,59,60,61,62,63,64,65,66,
(PID.TID 0000.0001) >#            97,98,99,100,103,104,105,106,143,144,
(PID.TID 0000.0001) >#            161,162,179,180,197,198,215,216,233,234
(PID.TID 0000.0001) >#15x15   nprocs = 360
(PID.TID 0000.0001) > blankList(1:108)=1,2,3,4,5,6,7,8,9,10,11,12,14,15,16,17,18,21,22,23,24,
(PID.TID 0000.0001) >  65,71,75,76,90,95,96,101,102,109,110,111,112,113,114,115,116,117,118,119,
(PID.TID 0000.0001) >  120,121,122,123,124,125,126,127,128,129,130,131,132,
(PID.TID 0000.0001) >  188,189,190,193,194,195,196,199,
(PID.TID 0000.0001) >  200,201,202,203,205,206,207,208,209,211,212,213,214,215,216,242,247,253,
(PID.TID 0000.0001) >  267,268,269,270,287,288,305,306,323,324,341,342,359,360,362,376,377,378,
(PID.TID 0000.0001) >  380,381,382,395,396,400,412,413,414,430,
(PID.TID 0000.0001) >#note: it seems that 8 of the followig 9 tiles could be added to 15x15 blank
(PID.TID 0000.0001) >#  list to reach 352=22*16 cores : 431 432 440 441 448 449 450 467 468
(PID.TID 0000.0001) > &
(PID.TID 0000.0001) 
(PID.TID 0000.0001) W2_READPARMS: finished reading data.exch2
(PID.TID 0000.0001) W2_useE2ioLayOut=    T ;/* T: use Exch2 glob IO map; F: use model default */
(PID.TID 0000.0001) W2_mapIO        =   1 ; /* select option for Exch2 global-IO map */
(PID.TID 0000.0001) W2_printMsg     =  -1 ; /* select option for printing information */
(PID.TID 0000.0001) ===== Start setting W2 TOPOLOGY:
(PID.TID 0000.0001)  write to log-file: w2_tile_topology.0000.log
(PID.TID 0000.0001) =====       setting W2 TOPOLOGY: Done
(PID.TID 0000.0001) 
(PID.TID 0000.0001)  INI_PARMS: opening model parameter file "data"
(PID.TID 0000.0001)  OPEN_COPY_DATA_FILE: opening file data
(PID.TID 0000.0001) // =======================================================
(PID.TID 0000.0001) // Parameter file "data"
(PID.TID 0000.0001) // =======================================================
(PID.TID 0000.0001) ># ====================
(PID.TID 0000.0001) ># | Model parameters |
(PID.TID 0000.0001) ># ====================
(PID.TID 0000.0001) >#
(PID.TID 0000.0001) ># Continuous equation parameters
(PID.TID 0000.0001) > &PARM01
(PID.TID 0000.0001) > tRef               = 3*23.,3*22.,21.,2*20.,19.,2*18.,17.,2*16.,15.,14.,13.,
(PID.TID 0000.0001) >                      12.,11.,2*9.,8.,7.,2*6.,2*5.,3*4.,3*3.,4*2.,12*1.,
(PID.TID 0000.0001) > sRef               = 50*34.5,
(PID.TID 0000.0001) > no_slip_sides  = .TRUE.,
(PID.TID 0000.0001) > no_slip_bottom = .TRUE.,
(PID.TID 0000.0001) >#
(PID.TID 0000.0001) > viscAr=0.5E-4,
(PID.TID 0000.0001) >#
(PID.TID 0000.0001) > viscAh=1.E0,
(PID.TID 0000.0001) > viscAhGrid=2.E-2,
(PID.TID 0000.0001) ># viscAh=2.0e4,
(PID.TID 0000.0001) >#
(PID.TID 0000.0001) > diffKhT=1.E1,
(PID.TID 0000.0001) > diffKrT=1.E-5,
(PID.TID 0000.0001) > diffKhS=1.E1,
(PID.TID 0000.0001) > diffKrS=1.E-5,
(PID.TID 0000.0001) >#
(PID.TID 0000.0001) >### diffKrBL79surf=0.1E-4,
(PID.TID 0000.0001) >### diffKrBL79deep=1.0E-4,
(PID.TID 0000.0001) > bottomDragQuadratic = 0.001,
(PID.TID 0000.0001) >#when using ggl90
(PID.TID 0000.0001) > ivdc_kappa=10.,
(PID.TID 0000.0001) > implicitDiffusion=.TRUE.,
(PID.TID 0000.0001) > implicitViscosity=.TRUE.,
(PID.TID 0000.0001) > useRealFreshWaterFlux=.TRUE.,
(PID.TID 0000.0001) ># balanceThetaClimRelax=.TRUE.,
(PID.TID 0000.0001) > balanceSaltClimRelax=.TRUE.,
(PID.TID 0000.0001) ># balanceEmPmR=.TRUE.,
(PID.TID 0000.0001) ># balanceQnet=.TRUE.,
(PID.TID 0000.0001) > allowFreezing=.FALSE.,
(PID.TID 0000.0001) >### hFacInf=0.2,
(PID.TID 0000.0001) >### hFacSup=2.0,
(PID.TID 0000.0001) > hFacMin=.2,
(PID.TID 0000.0001) > hFacMinDr=5.,
(PID.TID 0000.0001) > select_rStar=2,
(PID.TID 0000.0001) > nonlinFreeSurf=4,
(PID.TID 0000.0001) > gravity=9.81,
(PID.TID 0000.0001) > rhonil=1029.,
(PID.TID 0000.0001) > rhoConst=1029.,
(PID.TID 0000.0001) > rhoConstFresh=1000.,
(PID.TID 0000.0001) > convertFW2Salt=-1.,
(PID.TID 0000.0001) > eosType='JMD95Z',
(PID.TID 0000.0001) > implicitFreeSurface=.TRUE.,
(PID.TID 0000.0001) > exactConserv=.TRUE.,
(PID.TID 0000.0001) > useSingleCpuIO=.TRUE.,
(PID.TID 0000.0001) > tempAdvScheme=77,
(PID.TID 0000.0001) > saltAdvScheme=77,
(PID.TID 0000.0001) >#tempVertAdvScheme=3,
(PID.TID 0000.0001) >#saltVertAdvScheme=3,
(PID.TID 0000.0001) >#tempImplVertAdv=.TRUE.,
(PID.TID 0000.0001) >#saltImplVertAdv=.TRUE.,
(PID.TID 0000.0001) > staggerTimeStep=.TRUE.,
(PID.TID 0000.0001) > vectorInvariantMomentum=.TRUE.,
(PID.TID 0000.0001) >#when using the cd scheme:
(PID.TID 0000.0001) ># useCDscheme=.TRUE.,
(PID.TID 0000.0001) > useJamartWetPoints=.TRUE.,
(PID.TID 0000.0001) > readBinaryPrec=32,
(PID.TID 0000.0001) > writeBinaryPrec=32,
(PID.TID 0000.0001) > debugLevel=1,
(PID.TID 0000.0001) > &
(PID.TID 0000.0001) >
(PID.TID 0000.0001) ># Elliptic solver parameters
(PID.TID 0000.0001) > &PARM02
(PID.TID 0000.0001) > cg2dMaxIters=300,
(PID.TID 0000.0001) > cg2dTargetResWunit=1.E-12,
(PID.TID 0000.0001) > &
(PID.TID 0000.0001) >
(PID.TID 0000.0001) ># Time stepping parameters
(PID.TID 0000.0001) > &PARM03
(PID.TID 0000.0001) > nIter0=174564,
(PID.TID 0000.0001) >#2 lev2 for testing:
(PID.TID 0000.0001) ># nTimeSteps       = 192,
(PID.TID 0000.0001) >#20y:
(PID.TID 0000.0001) >  nTimeSteps       = 192,
(PID.TID 0000.0001) >#60 years
(PID.TID 0000.0001) ># nTimeSteps       = 192,
(PID.TID 0000.0001) >#
(PID.TID 0000.0001) > forcing_In_AB=.FALSE.,
(PID.TID 0000.0001) > momDissip_In_AB=.FALSE.,
(PID.TID 0000.0001) >#when using the cd scheme:
(PID.TID 0000.0001) ># epsAB_CD = 0.25,
(PID.TID 0000.0001) ># tauCD=172800.0,
(PID.TID 0000.0001) > deltaT = 450.,
(PID.TID 0000.0001) >#when using ab2:
(PID.TID 0000.0001) > abEps = 0.1,
(PID.TID 0000.0001) >#when using ab3:
(PID.TID 0000.0001) ># doAB_onGtGs=.FALSE.,
(PID.TID 0000.0001) ># alph_AB=0.5,
(PID.TID 0000.0001) ># beta_AB=0.281105,
(PID.TID 0000.0001) >#
(PID.TID 0000.0001) >  pChkptFreq        = 86400.0,
(PID.TID 0000.0001) >  chkptFreq        = 86400.0,
(PID.TID 0000.0001) ># taveFreq    =31536000.0,
(PID.TID 0000.0001) ># dumpFreq    =31536000.0,
(PID.TID 0000.0001) > monitorFreq=10800,
(PID.TID 0000.0001) > dumpInitAndLast = .TRUE.,
(PID.TID 0000.0001) > pickupStrictlyMatch=.FALSE.,
(PID.TID 0000.0001) > &
(PID.TID 0000.0001) >
(PID.TID 0000.0001) ># Gridding parameters
(PID.TID 0000.0001) > &PARM04
(PID.TID 0000.0001) > usingCurvilinearGrid=.TRUE.,
(PID.TID 0000.0001) > delR =
(PID.TID 0000.0001) >     10.00, 10.00, 10.00, 10.00, 10.00, 10.00, 10.00, 10.01,
(PID.TID 0000.0001) >     10.03, 10.11, 10.32, 10.80, 11.76, 13.42, 16.04, 19.82, 24.85,
(PID.TID 0000.0001) >     31.10, 38.42, 46.50, 55.00, 63.50, 71.58, 78.90, 85.15, 90.18,
(PID.TID 0000.0001) >     93.96, 96.58, 98.25, 99.25,100.01,101.33,104.56,111.33,122.83,
(PID.TID 0000.0001) >     139.09,158.94,180.83,203.55,226.50,249.50,272.50,295.50,318.50,
(PID.TID 0000.0001) >     341.50,364.50,387.50,410.50,433.50,456.50,
(PID.TID 0000.0001) > &
(PID.TID 0000.0001) >
(PID.TID 0000.0001) ># Input datasets
(PID.TID 0000.0001) > &PARM05
(PID.TID 0000.0001) >#adTapeDir='tapes',
(PID.TID 0000.0001) > bathyFile      ='bathy.bin',
(PID.TID 0000.0001) > hydrogThetaFile='T_OWPv1_M_eccollc_90x50.bin',
(PID.TID 0000.0001) > hydrogSaltFile ='S_OWPv1_M_eccollc_90x50.bin',
(PID.TID 0000.0001) > viscA4Dfile    ='viscA4Dfld.bin',
(PID.TID 0000.0001) > viscA4Zfile    ='viscA4Zfld.bin',
(PID.TID 0000.0001) > geothermalFile='geothermalFlux.bin',
(PID.TID 0000.0001) >#
(PID.TID 0000.0001) > &
(PID.TID 0000.0001) 
(PID.TID 0000.0001)  INI_PARMS ; starts to read PARM01
(PID.TID 0000.0001)  INI_PARMS ; read PARM01 : OK
(PID.TID 0000.0001)  INI_PARMS ; starts to read PARM02
(PID.TID 0000.0001)  INI_PARMS ; read PARM02 : OK
(PID.TID 0000.0001)  INI_PARMS ; starts to read PARM03
(PID.TID 0000.0001)  INI_PARMS ; read PARM03 : OK
(PID.TID 0000.0001)  INI_PARMS ; starts to read PARM04
(PID.TID 0000.0001)  INI_PARMS ; read PARM04 : OK
(PID.TID 0000.0001)  INI_PARMS ; starts to read PARM05
(PID.TID 0000.0001)  INI_PARMS ; read PARM05 : OK
(PID.TID 0000.0001)  INI_PARMS: finished reading file "data"
(PID.TID 0000.0001)  PACKAGES_BOOT: opening data.pkg
(PID.TID 0000.0001)  OPEN_COPY_DATA_FILE: opening file data.pkg
(PID.TID 0000.0001) // =======================================================
(PID.TID 0000.0001) // Parameter file "data.pkg"
(PID.TID 0000.0001) // =======================================================
(PID.TID 0000.0001) ># Packages
(PID.TID 0000.0001) > &PACKAGES
(PID.TID 0000.0001) > useGMRedi          = .TRUE.,
(PID.TID 0000.0001) > useGGL90           = .TRUE.,
(PID.TID 0000.0001) > useSALT_PLUME      = .TRUE.,
(PID.TID 0000.0001) > useDiagnostics     = .TRUE.,
(PID.TID 0000.0001) > useCTRL            = .TRUE.,
(PID.TID 0000.0001) > &
(PID.TID 0000.0001) 
(PID.TID 0000.0001)  PACKAGES_BOOT: finished reading data.pkg
(PID.TID 0000.0001)  PACKAGES_BOOT: On/Off package Summary
 --------  pkgs with a standard "usePKG" On/Off switch in "data.pkg":  --------
 pkg/ggl90                compiled   and   used ( useGGL90                 = T )
 pkg/gmredi               compiled   and   used ( useGMRedi                = T )
 pkg/ctrl                 compiled   and   used ( useCTRL                  = T )
 pkg/salt_plume           compiled   and   used ( useSALT_PLUME            = T )
 pkg/diagnostics          compiled   and   used ( useDiagnostics           = T )
 -------- pkgs without standard "usePKG" On/Off switch in "data.pkg":  --------
 pkg/generic_advdiff      compiled   and   used ( useGAD                   = T )
 pkg/mom_common           compiled   and   used ( momStepping              = T )
 pkg/mom_vecinv           compiled   and   used ( +vectorInvariantMomentum = T )
 pkg/monitor              compiled   and   used ( monitorFreq > 0.         = T )
 pkg/debug                compiled but not used ( debugMode                = F )
 pkg/exch2                compiled   and   used
 pkg/rw                   compiled   and   used
 pkg/mdsio                compiled   and   used
(PID.TID 0000.0001)  PACKAGES_BOOT: End of package Summary
(PID.TID 0000.0001) 
(PID.TID 0000.0001)  GGL90_READPARMS: opening data.ggl90
(PID.TID 0000.0001)  OPEN_COPY_DATA_FILE: opening file data.ggl90
(PID.TID 0000.0001) // =======================================================
(PID.TID 0000.0001) // Parameter file "data.ggl90"
(PID.TID 0000.0001) // =======================================================
(PID.TID 0000.0001) ># =====================================================================
(PID.TID 0000.0001) ># | Parameters for Gaspar et al. (1990)'s TKE vertical mixing scheme  |
(PID.TID 0000.0001) ># =====================================================================
(PID.TID 0000.0001) > &GGL90_PARM01
(PID.TID 0000.0001) ># GGL90taveFreq = 345600000.,
(PID.TID 0000.0001) ># GGL90dumpFreq = 86400.,
(PID.TID 0000.0001) ># GGL90writeState=.FALSE.,
(PID.TID 0000.0001) ># GGL90diffTKEh=3.e3,
(PID.TID 0000.0001) > GGL90alpha=30.,
(PID.TID 0000.0001) ># GGL90TKEFile = 'TKE_init.bin',
(PID.TID 0000.0001) > GGL90TKEmin  = 1.e-7,
(PID.TID 0000.0001) > GGL90TKEbottom = 1.e-6,
(PID.TID 0000.0001) > mxlMaxFlag =2,
(PID.TID 0000.0001) > mxlSurfFlag=.TRUE.,
(PID.TID 0000.0001) > &
(PID.TID 0000.0001) 
(PID.TID 0000.0001)  GGL90_READPARMS ; starts to read GGL90_PARM01
(PID.TID 0000.0001)  GGL90_READPARMS: read GGL90_PARM01 : OK
(PID.TID 0000.0001)  GGL90_READPARMS: finished reading data.ggl90
(PID.TID 0000.0001) // =======================================================
(PID.TID 0000.0001) // GGL90 configuration
(PID.TID 0000.0001) // =======================================================
(PID.TID 0000.0001) GGL90dumpFreq =   /* GGL90 state write out interval ( s ). */
(PID.TID 0000.0001)                 0.000000000000000E+00
(PID.TID 0000.0001)     ;
(PID.TID 0000.0001) GGL90taveFreq =   /* GGL90 averaging interval ( s ). */
(PID.TID 0000.0001)                 0.000000000000000E+00
(PID.TID 0000.0001)     ;
(PID.TID 0000.0001) GGL90mixingMAPS =   /* GGL90 IO flag. */
(PID.TID 0000.0001)                   F
(PID.TID 0000.0001)     ;
(PID.TID 0000.0001) GGL90writeState =   /* GGL90 IO flag. */
(PID.TID 0000.0001)                   F
(PID.TID 0000.0001)     ;
(PID.TID 0000.0001) GGL90ck =   /* GGL90 viscosity parameter. */
(PID.TID 0000.0001)                 1.000000000000000E-01
(PID.TID 0000.0001)     ;
(PID.TID 0000.0001) GGL90ceps =   /* GGL90 dissipation parameter. */
(PID.TID 0000.0001)                 7.000000000000000E-01
(PID.TID 0000.0001)     ;
(PID.TID 0000.0001) GGL90alpha =   /* GGL90 TKE diffusivity parameter. */
(PID.TID 0000.0001)                 3.000000000000000E+01
(PID.TID 0000.0001)     ;
(PID.TID 0000.0001) GGL90m2 =   /* GGL90 wind stress to vertical stress ratio. */
(PID.TID 0000.0001)                 3.750000000000000E+00
(PID.TID 0000.0001)     ;
(PID.TID 0000.0001) GGL90TKEmin =   /* GGL90 minimum kinetic energy ( m^2/s^2 ). */
(PID.TID 0000.0001)                 1.000000000000000E-07
(PID.TID 0000.0001)     ;
(PID.TID 0000.0001) GGL90TKEsurfMin =   /* GGL90 minimum surface kinetic energy ( m^2/s^2 ). */
(PID.TID 0000.0001)                 1.000000000000000E-04
(PID.TID 0000.0001)     ;
(PID.TID 0000.0001) GGL90TKEbottom =   /* GGL90 bottom kinetic energy ( m^2/s^2 ). */
(PID.TID 0000.0001)                 1.000000000000000E-06
(PID.TID 0000.0001)     ;
(PID.TID 0000.0001) GGL90viscMax =   /* GGL90 upper limit for viscosity ( m^2/s ). */
(PID.TID 0000.0001)                 1.000000000000000E+02
(PID.TID 0000.0001)     ;
(PID.TID 0000.0001) GGL90diffMax =   /* GGL90 upper limit for diffusivity ( m^2/s ). */
(PID.TID 0000.0001)                 1.000000000000000E+02
(PID.TID 0000.0001)     ;
(PID.TID 0000.0001) GGL90diffTKEh =   /* GGL90 horizontal diffusivity for TKE ( m^2/s ). */
(PID.TID 0000.0001)                 0.000000000000000E+00
(PID.TID 0000.0001)     ;
(PID.TID 0000.0001) GGL90mixingLengthMin =   /* GGL90 minimum mixing length ( m ). */
(PID.TID 0000.0001)                 1.000000000000000E-08
(PID.TID 0000.0001)     ;
(PID.TID 0000.0001) mxlMaxFlag =   /* Flag for limiting mixing-length method */
(PID.TID 0000.0001)                       2
(PID.TID 0000.0001)     ;
(PID.TID 0000.0001) mxlSurfFlag =   /* GGL90 flag for near surface mixing. */
(PID.TID 0000.0001)                   T
(PID.TID 0000.0001)     ;
(PID.TID 0000.0001) calcMeanVertShear = /* calc Mean of Vert.Shear (vs shear of Mean flow) */
(PID.TID 0000.0001)                   F
(PID.TID 0000.0001)     ;
(PID.TID 0000.0001) GGL90: GGL90TKEFile =
(PID.TID 0000.0001) GGL90writeState =   /* GGL90 Boundary condition flag. */
(PID.TID 0000.0001)                   T
(PID.TID 0000.0001)     ;
(PID.TID 0000.0001) // =======================================================
(PID.TID 0000.0001) // End of GGL90 config. summary
(PID.TID 0000.0001) // =======================================================
(PID.TID 0000.0001) 
(PID.TID 0000.0001)  GM_READPARMS: opening data.gmredi
(PID.TID 0000.0001)  OPEN_COPY_DATA_FILE: opening file data.gmredi
(PID.TID 0000.0001) // =======================================================
(PID.TID 0000.0001) // Parameter file "data.gmredi"
(PID.TID 0000.0001) // =======================================================
(PID.TID 0000.0001) ># GM+Redi package parameters:
(PID.TID 0000.0001) >#     GM_Small_Number  :: epsilon used in computing the slope
(PID.TID 0000.0001) >#     GM_slopeSqCutoff :: slope^2 cut-off value
(PID.TID 0000.0001) >
(PID.TID 0000.0001) >#-from MOM :
(PID.TID 0000.0001) ># GM_background_K: 	G & Mc.W  diffusion coefficient
(PID.TID 0000.0001) ># GM_maxSlope    :	max slope of isopycnals
(PID.TID 0000.0001) ># GM_Scrit       :	transition for scaling diffusion coefficient
(PID.TID 0000.0001) ># GM_Sd          :	half width scaling for diffusion coefficient
(PID.TID 0000.0001) ># GM_taper_scheme:	slope clipping or one of the tapering schemes
(PID.TID 0000.0001) ># GM_Kmin_horiz  :	horizontal diffusion minimum value
(PID.TID 0000.0001) >
(PID.TID 0000.0001) >#-Option parameters (needs to "define" options in GMREDI_OPTIONS.h")
(PID.TID 0000.0001) ># GM_isopycK     :	isopycnal diffusion coefficient (default=GM_background_K)
(PID.TID 0000.0001) ># GM_AdvForm     :	turn on GM Advective form       (default=Skew flux form)
(PID.TID 0000.0001) >
(PID.TID 0000.0001) > &GM_PARM01
(PID.TID 0000.0001) >  GM_Small_Number  = 1.D-20,
(PID.TID 0000.0001) >  GM_slopeSqCutoff = 1.D+08,
(PID.TID 0000.0001) >  GM_AdvForm         = .TRUE.,
(PID.TID 0000.0001) >  GM_isopycK         = 1.D+3,
(PID.TID 0000.0001) >  GM_background_K    = 1.D+3,
(PID.TID 0000.0001) >  GM_maxSlope        = 4.D-3,
(PID.TID 0000.0001) >  GM_taper_scheme    = 'stableGmAdjTap',
(PID.TID 0000.0001) >  GM_Kmin_horiz      = 100.,
(PID.TID 0000.0001) >  GM_Scrit           = 4.D-3,
(PID.TID 0000.0001) >  GM_Sd              = 1.D-3,
(PID.TID 0000.0001) >#
(PID.TID 0000.0001) >###  GM_Visbeck_alpha   = 1.5D-2,
(PID.TID 0000.0001) >###  GM_Visbeck_alpha   = 0.D0,
(PID.TID 0000.0001) >###  GM_Visbeck_length  = 2.D+5,
(PID.TID 0000.0001) >###  GM_Visbeck_depth   = 1.D+3,
(PID.TID 0000.0001) >###  GM_Visbeck_maxval_K= 2.5D+3,
(PID.TID 0000.0001) > &
(PID.TID 0000.0001) >
(PID.TID 0000.0001) >
(PID.TID 0000.0001) 
(PID.TID 0000.0001)  GM_READPARMS: finished reading data.gmredi
(PID.TID 0000.0001) SALT_PLUME_READPARMS: opening data.salt_plume
(PID.TID 0000.0001)  OPEN_COPY_DATA_FILE: opening file data.salt_plume
(PID.TID 0000.0001) // =======================================================
(PID.TID 0000.0001) // Parameter file "data.salt_plume"
(PID.TID 0000.0001) // =======================================================
(PID.TID 0000.0001) > &SALT_PLUME_PARM01
(PID.TID 0000.0001) > SPsalFRAC= 0.5D0,
(PID.TID 0000.0001) > &
(PID.TID 0000.0001) 
(PID.TID 0000.0001) SALT_PLUME_READPARMS: finished reading data.salt_plume
(PID.TID 0000.0001) OPTIM_READPARMS: opening data.optim
(PID.TID 0000.0001)  OPEN_COPY_DATA_FILE: opening file data.optim
(PID.TID 0000.0001) // =======================================================
(PID.TID 0000.0001) // Parameter file "data.optim"
(PID.TID 0000.0001) // =======================================================
(PID.TID 0000.0001) >#
(PID.TID 0000.0001) ># ********************************
(PID.TID 0000.0001) ># Off-line optimization parameters
(PID.TID 0000.0001) ># ********************************
(PID.TID 0000.0001) > &OPTIM
(PID.TID 0000.0001) > optimcycle=12,
(PID.TID 0000.0001) > &
(PID.TID 0000.0001) 
(PID.TID 0000.0001) OPTIM_READPARMS: finished reading data.optim
(PID.TID 0000.0001) CTRL_READPARMS: opening data.ctrl
(PID.TID 0000.0001)  OPEN_COPY_DATA_FILE: opening file data.ctrl
(PID.TID 0000.0001) // =======================================================
(PID.TID 0000.0001) // Parameter file "data.ctrl"
(PID.TID 0000.0001) // =======================================================
(PID.TID 0000.0001) ># *********************
(PID.TID 0000.0001) ># ECCO control variables
(PID.TID 0000.0001) ># *********************
(PID.TID 0000.0001) > &ctrl_nml
(PID.TID 0000.0001) > doSinglePrecTapelev=.TRUE.,
(PID.TID 0000.0001) >#to start from given xx*00.data files
(PID.TID 0000.0001) >  doinitxx = .FALSE.,
(PID.TID 0000.0001) >  doMainUnpack = .FALSE.,
(PID.TID 0000.0001) >#to start from given ecco_ctrl... files
(PID.TID 0000.0001) ># doinitxx = .FALSE.,
(PID.TID 0000.0001) > &
(PID.TID 0000.0001) >#
(PID.TID 0000.0001) ># *********************
(PID.TID 0000.0001) ># names for ctrl_pack/unpack
(PID.TID 0000.0001) ># *********************
(PID.TID 0000.0001) > &ctrl_packnames
(PID.TID 0000.0001) > &
(PID.TID 0000.0001) >#
(PID.TID 0000.0001) ># *********************
(PID.TID 0000.0001) ># names for CTRL_GENARR2D,3D CTRL_GENTIM2D
(PID.TID 0000.0001) ># *********************
(PID.TID 0000.0001) > &CTRL_NML_GENARR
(PID.TID 0000.0001) >#
(PID.TID 0000.0001) > xx_genarr3d_weight(1) = 'wt_ones.data',
(PID.TID 0000.0001) > xx_genarr3d_file(1)='xx_kapgm',
(PID.TID 0000.0001) > mult_genarr3d(1) = 0.,
(PID.TID 0000.0001) >#
(PID.TID 0000.0001) > xx_genarr3d_weight(2) = 'wt_ones.data',
(PID.TID 0000.0001) > xx_genarr3d_file(2)='xx_kapredi',
(PID.TID 0000.0001) > mult_genarr3d(2) = 0.,
(PID.TID 0000.0001) >#
(PID.TID 0000.0001) > xx_genarr3d_weight(3) = 'wt_ones.data',
(PID.TID 0000.0001) > xx_genarr3d_file(3)='xx_diffkr',
(PID.TID 0000.0001) > mult_genarr3d(3) = 0.,
(PID.TID 0000.0001) >#
(PID.TID 0000.0001) > &
(PID.TID 0000.0001) 
(PID.TID 0000.0001) CTRL_READPARMS: finished reading data.ctrl
(PID.TID 0000.0001)  DIAGNOSTICS_READPARMS: opening data.diagnostics
(PID.TID 0000.0001)  OPEN_COPY_DATA_FILE: opening file data.diagnostics
(PID.TID 0000.0001) // =======================================================
(PID.TID 0000.0001) // Parameter file "data.diagnostics"
(PID.TID 0000.0001) // =======================================================
(PID.TID 0000.0001) ># Diagnostic Package Choices
(PID.TID 0000.0001) >#--------------------
(PID.TID 0000.0001) >#  dumpAtLast (logical): always write output at the end of simulation (default=F)
(PID.TID 0000.0001) >#  diag_mnc   (logical): write to NetCDF files (default=useMNC)
(PID.TID 0000.0001) >#--for each output-stream:
(PID.TID 0000.0001) >#  fileName(n) : prefix of the output file name (max 80c long) for outp.stream n
(PID.TID 0000.0001) >#  frequency(n):< 0 : write snap-shot output every |frequency| seconds
(PID.TID 0000.0001) >#               > 0 : write time-average output every frequency seconds
(PID.TID 0000.0001) >#  timePhase(n)     : write at time = timePhase + multiple of |frequency|
(PID.TID 0000.0001) >#    averagingFreq  : frequency (in s) for periodic averaging interval
(PID.TID 0000.0001) >#    averagingPhase : phase     (in s) for periodic averaging interval
(PID.TID 0000.0001) >#    repeatCycle    : number of averaging intervals in 1 cycle
(PID.TID 0000.0001) >#  levels(:,n) : list of levels to write to file (Notes: declared as REAL)
(PID.TID 0000.0001) >#                when this entry is missing, select all common levels of this list
(PID.TID 0000.0001) >#  fields(:,n) : list of selected diagnostics fields (8.c) in outp.stream n
(PID.TID 0000.0001) >#                (see "available_diagnostics.log" file for the full list of diags)
(PID.TID 0000.0001) >#  missing_value(n) : missing value for real-type fields in output file "n"
(PID.TID 0000.0001) >#  fileFlags(n)     : specific code (8c string) for output file "n"
(PID.TID 0000.0001) >#--------------------
(PID.TID 0000.0001) ># oceTAUX  zonal surface wind stress, >0 increases uVel (N/m^2)
(PID.TID 0000.0001) ># oceTAUY  meridional surf. wind stress, >0 increases vVel (N/m^2)
(PID.TID 0000.0001) ># oceFWflx net surface Fresh-Water flux into ocean, >0 decreases salinity (kg/m^2/s)
(PID.TID 0000.0001) ># oceSflux net surface Salt flux into the ocean, >0 increases salinity (g/m^2/s)
(PID.TID 0000.0001) ># oceQnet  net surface heat flux into the ocean, >0 increases theta (W/m^2)
(PID.TID 0000.0001) ># oceQsw   net Short-Wave radiation (+=down), >0 increases theta (W/m^2)
(PID.TID 0000.0001) ># SSS      Sea Surface Salinity (g/kg)
(PID.TID 0000.0001) ># SST      Sea Surface Temperature (degC)
(PID.TID 0000.0001) ># UVEL1    Zonal Surface Velocity (m/s)
(PID.TID 0000.0001) ># VVEL1    Meridional Surface Velocity (m/s)
(PID.TID 0000.0001) >
(PID.TID 0000.0001) > &DIAGNOSTICS_LIST
(PID.TID 0000.0001) >   frequency(1)  = 10800.,
(PID.TID 0000.0001) >   fields(1,1)  = 'oceTAUX ','oceTAUY ','oceFWflx','oceSflux','oceQnet ','oceQsw  ',
(PID.TID 0000.0001) >   filename(1)  = 'state_2d_set1',
(PID.TID 0000.0001) > frequency(2)  = 10800.,
(PID.TID 0000.0001) >    fields(1,2)  = 'SALT    ','THETA   ','UVELMASS','VVELMASS',
(PID.TID 0000.0001) >    levels(1,2)  = 1.,
(PID.TID 0000.0001) >    filename(2)  = 'state_3d_set1',
(PID.TID 0000.0001) > &
(PID.TID 0000.0001) >
(PID.TID 0000.0001) > &DIAG_STATIS_PARMS
(PID.TID 0000.0001) > stat_fields(1:6,1)  = 'ETAN    ', 'THETA   ','SALT    ','oceQnet ','oceFWflx','oceSflux',
(PID.TID 0000.0001) > stat_fName(1) = 'dynStDiag',
(PID.TID 0000.0001) > stat_freq(1)=  10800.0,
(PID.TID 0000.0001) > &
(PID.TID 0000.0001) 
(PID.TID 0000.0001) S/R DIAGNOSTICS_READPARMS, read namelist "diagnostics_list": start
(PID.TID 0000.0001) S/R DIAGNOSTICS_READPARMS, read namelist "diagnostics_list": OK
(PID.TID 0000.0001) S/R DIAGNOSTICS_READPARMS, read namelist "DIAG_STATIS_PARMS": start
(PID.TID 0000.0001) S/R DIAGNOSTICS_READPARMS, read namelist "DIAG_STATIS_PARMS": OK
(PID.TID 0000.0001)  DIAGNOSTICS_READPARMS: global parameter summary:
(PID.TID 0000.0001)  dumpAtLast = /* always write time-ave diags at the end */
(PID.TID 0000.0001)                   F
(PID.TID 0000.0001)     ;
(PID.TID 0000.0001)  diag_mnc =   /* write NetCDF output files */
(PID.TID 0000.0001)                   F
(PID.TID 0000.0001)     ;
(PID.TID 0000.0001)  useMissingValue = /* put MissingValue where mask = 0 */
(PID.TID 0000.0001)                   F
(PID.TID 0000.0001)     ;
(PID.TID 0000.0001)  diagCG_maxIters = /* max number of iters in diag_cg2d */
(PID.TID 0000.0001)                     300
(PID.TID 0000.0001)     ;
(PID.TID 0000.0001)  diagCG_resTarget = /* residual target for diag_cg2d */
(PID.TID 0000.0001)                 1.000000000000000E-07
(PID.TID 0000.0001)     ;
(PID.TID 0000.0001)  diagCG_pcOffDFac = /* preconditioner off-diagonal factor */
(PID.TID 0000.0001)                 9.611687812379854E-01
(PID.TID 0000.0001)     ;
(PID.TID 0000.0001) -----------------------------------------------------
(PID.TID 0000.0001)  DIAGNOSTICS_READPARMS: active diagnostics summary:
(PID.TID 0000.0001) -----------------------------------------------------
(PID.TID 0000.0001) Creating Output Stream: state_2d_set1
(PID.TID 0000.0001) Output Frequency:      10800.000000 ; Phase:           0.000000
(PID.TID 0000.0001)  Averaging Freq.:      10800.000000 , Phase:           0.000000 , Cycle:   1
(PID.TID 0000.0001)  missing value: -9.990000000000E+02
(PID.TID 0000.0001)  Levels:    will be set later
(PID.TID 0000.0001)  Fields:    oceTAUX  oceTAUY  oceFWflx oceSflux oceQnet  oceQsw
(PID.TID 0000.0001) Creating Output Stream: state_3d_set1
(PID.TID 0000.0001) Output Frequency:      10800.000000 ; Phase:           0.000000
(PID.TID 0000.0001)  Averaging Freq.:      10800.000000 , Phase:           0.000000 , Cycle:   1
(PID.TID 0000.0001)  missing value: -9.990000000000E+02
(PID.TID 0000.0001)  Levels:       1.
(PID.TID 0000.0001)  Fields:    SALT     THETA    UVELMASS VVELMASS
(PID.TID 0000.0001) -----------------------------------------------------
(PID.TID 0000.0001)  DIAGNOSTICS_READPARMS: statistics diags. summary:
(PID.TID 0000.0001) Creating Stats. Output Stream: dynStDiag
(PID.TID 0000.0001) Output Frequency:      10800.000000 ; Phase:           0.000000
(PID.TID 0000.0001)  Regions:   0
(PID.TID 0000.0001)  Fields:    ETAN     THETA    SALT     oceQnet  oceFWflx oceSflux
(PID.TID 0000.0001) -----------------------------------------------------
(PID.TID 0000.0001) 
(PID.TID 0000.0001) SET_PARMS: done
(PID.TID 0000.0001) Enter INI_VERTICAL_GRID: setInterFDr=    T ; setCenterDr=    F
(PID.TID 0000.0001) tile:  13 ; Read from file tile001.mitgrid
(PID.TID 0000.0001)   => xC yC dxF dyF rA xG yG dxV dyU rAz dxC dyC rAw rAs dxG dyG
(PID.TID 0000.0001) %MON XC_max                       =   1.7997758946678E+02
(PID.TID 0000.0001) %MON XC_min                       =  -1.7998895680928E+02
(PID.TID 0000.0001) %MON XC_mean                      =  -1.0354689745251E+01
(PID.TID 0000.0001) %MON XC_sd                        =   1.0601378873778E+02
(PID.TID 0000.0001) %MON XG_max                       =   1.8000000000000E+02
(PID.TID 0000.0001) %MON XG_min                       =  -1.7999919444240E+02
(PID.TID 0000.0001) %MON XG_mean                      =  -9.7316629877777E+00
(PID.TID 0000.0001) %MON XG_sd                        =   1.0605795026741E+02
(PID.TID 0000.0001) %MON DXC_max                      =   1.1117680031365E+05
(PID.TID 0000.0001) %MON DXC_min                      =   1.3362789164732E+04
(PID.TID 0000.0001) %MON DXC_mean                     =   7.1282067642819E+04
(PID.TID 0000.0001) %MON DXC_sd                       =   2.6365676113021E+04
(PID.TID 0000.0001) %MON DXF_max                      =   1.1117680031365E+05
(PID.TID 0000.0001) %MON DXF_min                      =   1.3491575949394E+04
(PID.TID 0000.0001) %MON DXF_mean                     =   7.1262567365097E+04
(PID.TID 0000.0001) %MON DXF_sd                       =   2.6385918670202E+04
(PID.TID 0000.0001) %MON DXG_max                      =   1.1117747335204E+05
(PID.TID 0000.0001) %MON DXG_min                      =   1.0930409249570E+04
(PID.TID 0000.0001) %MON DXG_mean                     =   7.1224912463018E+04
(PID.TID 0000.0001) %MON DXG_sd                       =   2.6396347680762E+04
(PID.TID 0000.0001) %MON DXV_max                      =   1.1117747335204E+05
(PID.TID 0000.0001) %MON DXV_min                      =   9.4742518926426E+03
(PID.TID 0000.0001) %MON DXV_mean                     =   7.1244400980648E+04
(PID.TID 0000.0001) %MON DXV_sd                       =   2.6376171348787E+04
(PID.TID 0000.0001) %MON YC_max                       =   8.9739397429324E+01
(PID.TID 0000.0001) %MON YC_min                       =  -8.8102666383598E+01
(PID.TID 0000.0001) %MON YC_mean                      =  -3.8493079484782E+00
(PID.TID 0000.0001) %MON YC_sd                        =   5.1076689278256E+01
(PID.TID 0000.0001) %MON YG_max                       =   9.0000000000000E+01
(PID.TID 0000.0001) %MON YG_min                       =  -8.8024090322283E+01
(PID.TID 0000.0001) %MON YG_mean                      =  -3.8179083153408E+00
(PID.TID 0000.0001) %MON YG_sd                        =   5.1084555464418E+01
(PID.TID 0000.0001) %MON DYC_max                      =   1.1117680031365E+05
(PID.TID 0000.0001) %MON DYC_min                      =   1.2851209862268E+04
(PID.TID 0000.0001) %MON DYC_mean                     =   7.0996219118354E+04
(PID.TID 0000.0001) %MON DYC_sd                       =   2.7172906336655E+04
(PID.TID 0000.0001) %MON DYF_max                      =   1.1117680031365E+05
(PID.TID 0000.0001) %MON DYF_min                      =   1.2946481280457E+04
(PID.TID 0000.0001) %MON DYF_mean                     =   7.1029727417398E+04
(PID.TID 0000.0001) %MON DYF_sd                       =   2.7169103980511E+04
(PID.TID 0000.0001) %MON DYG_max                      =   1.1117747335204E+05
(PID.TID 0000.0001) %MON DYG_min                      =   1.0930409249570E+04
(PID.TID 0000.0001) %MON DYG_mean                     =   7.1056024568496E+04
(PID.TID 0000.0001) %MON DYG_sd                       =   2.7138779068799E+04
(PID.TID 0000.0001) %MON DYU_max                      =   1.1117747335204E+05
(PID.TID 0000.0001) %MON DYU_min                      =   9.4742518926426E+03
(PID.TID 0000.0001) %MON DYU_mean                     =   7.1022557361675E+04
(PID.TID 0000.0001) %MON DYU_sd                       =   2.7142564797123E+04
(PID.TID 0000.0001) %MON RA_max                       =   1.1896090857160E+10
(PID.TID 0000.0001) %MON RA_min                       =   1.8802726709832E+08
(PID.TID 0000.0001) %MON RA_mean                      =   5.6509598865793E+09
(PID.TID 0000.0001) %MON RA_sd                        =   3.6237073945657E+09
(PID.TID 0000.0001) %MON RAW_max                      =   1.1896090856781E+10
(PID.TID 0000.0001) %MON RAW_min                      =   1.7369571508711E+08
(PID.TID 0000.0001) %MON RAW_mean                     =   5.6529106837210E+09
(PID.TID 0000.0001) %MON RAW_sd                       =   3.6222060900726E+09
(PID.TID 0000.0001) %MON RAS_max                      =   1.1896090856781E+10
(PID.TID 0000.0001) %MON RAS_min                      =   1.7369571508711E+08
(PID.TID 0000.0001) %MON RAS_mean                     =   5.6462585155598E+09
(PID.TID 0000.0001) %MON RAS_sd                       =   3.6239168120244E+09
(PID.TID 0000.0001) %MON RAZ_max                      =   1.1891903479271E+10
(PID.TID 0000.0001) %MON RAZ_min                      =   1.0413402423292E+08
(PID.TID 0000.0001) %MON RAZ_mean                     =   5.6482099179688E+09
(PID.TID 0000.0001) %MON RAZ_sd                       =   3.6224179770596E+09
(PID.TID 0000.0001) %MON AngleCS_max                  =   1.0000000000000E+00
(PID.TID 0000.0001) %MON AngleCS_min                  =  -9.9996641938864E-01
(PID.TID 0000.0001) %MON AngleCS_mean                 =   3.7891728692339E-01
(PID.TID 0000.0001) %MON AngleCS_sd                   =   5.4799109936656E-01
(PID.TID 0000.0001) %MON AngleSN_max                  =   9.9996641938864E-01
(PID.TID 0000.0001) %MON AngleSN_min                  =  -1.0000000000000E+00
(PID.TID 0000.0001) %MON AngleSN_mean                 =  -5.1564638641270E-01
(PID.TID 0000.0001) %MON AngleSN_sd                   =   5.3873578762245E-01
(PID.TID 0000.0001) GAD_INIT_FIXED: GAD_OlMinSize=  2  0  2
(PID.TID 0000.0001) 
(PID.TID 0000.0001) // ===================================
(PID.TID 0000.0001) // GAD parameters :
(PID.TID 0000.0001) // ===================================
(PID.TID 0000.0001) tempAdvScheme =   /* Temp. Horiz.Advection scheme selector */
(PID.TID 0000.0001)                      77
(PID.TID 0000.0001)     ;
(PID.TID 0000.0001) tempVertAdvScheme =   /* Temp. Vert. Advection scheme selector */
(PID.TID 0000.0001)                      77
(PID.TID 0000.0001)     ;
(PID.TID 0000.0001) tempMultiDimAdvec =   /* use Muti-Dim Advec method for Temp */
(PID.TID 0000.0001)                   T
(PID.TID 0000.0001)     ;
(PID.TID 0000.0001) tempSOM_Advection = /* use 2nd Order Moment Advection for Temp */
(PID.TID 0000.0001)                   F
(PID.TID 0000.0001)     ;
(PID.TID 0000.0001) AdamsBashforthGt = /* apply Adams-Bashforth extrapolation on Gt */
(PID.TID 0000.0001)                   F
(PID.TID 0000.0001)     ;
(PID.TID 0000.0001) AdamsBashforth_T = /* apply Adams-Bashforth extrapolation on Temp */
(PID.TID 0000.0001)                   F
(PID.TID 0000.0001)     ;
(PID.TID 0000.0001) saltAdvScheme =   /* Salt. Horiz.advection scheme selector */
(PID.TID 0000.0001)                      77
(PID.TID 0000.0001)     ;
(PID.TID 0000.0001) saltVertAdvScheme =   /* Salt. Vert. Advection scheme selector */
(PID.TID 0000.0001)                      77
(PID.TID 0000.0001)     ;
(PID.TID 0000.0001) saltMultiDimAdvec =   /* use Muti-Dim Advec method for Salt */
(PID.TID 0000.0001)                   T
(PID.TID 0000.0001)     ;
(PID.TID 0000.0001) saltSOM_Advection = /* use 2nd Order Moment Advection for Salt */
(PID.TID 0000.0001)                   F
(PID.TID 0000.0001)     ;
(PID.TID 0000.0001) AdamsBashforthGs = /* apply Adams-Bashforth extrapolation on Gs */
(PID.TID 0000.0001)                   F
(PID.TID 0000.0001)     ;
(PID.TID 0000.0001) AdamsBashforth_S = /* apply Adams-Bashforth extrapolation on Salt */
(PID.TID 0000.0001)                   F
(PID.TID 0000.0001)     ;
(PID.TID 0000.0001) // ===================================
(PID.TID 0000.0001) ctrl-wet 1:    nvarlength =         2157
(PID.TID 0000.0001) ctrl-wet 2: surface wet C =           28
(PID.TID 0000.0001) ctrl-wet 3: surface wet W =           28
(PID.TID 0000.0001) ctrl-wet 4: surface wet S =           19
(PID.TID 0000.0001) ctrl-wet 4a:surface wet V =            0
(PID.TID 0000.0001) ctrl-wet 5: 3D wet points =          719
(PID.TID 0000.0001) ctrl-wet 6: no recs for i =     1           0
(PID.TID 0000.0001) ctrl-wet 6: no recs for i =     2           0
(PID.TID 0000.0001) ctrl-wet 6: no recs for i =     3           0
(PID.TID 0000.0001) ctrl-wet 6: no recs for i =     4           0
(PID.TID 0000.0001) ctrl-wet 6: no recs for i =     5           0
(PID.TID 0000.0001) ctrl-wet 6: no recs for i =     6           0
(PID.TID 0000.0001) ctrl-wet 6: no recs for i =     7           0
(PID.TID 0000.0001) ctrl-wet 6: no recs for i =     8           0
(PID.TID 0000.0001) ctrl-wet 6: no recs for i =     9           0
(PID.TID 0000.0001) ctrl-wet 6: no recs for i =    10           0
(PID.TID 0000.0001) ctrl-wet 6: no recs for i =    11           0
(PID.TID 0000.0001) ctrl-wet 6: no recs for i =    12           0
(PID.TID 0000.0001) ctrl-wet 6: no recs for i =    13           0
(PID.TID 0000.0001) ctrl-wet 6: no recs for i =    14           0
(PID.TID 0000.0001) ctrl-wet 6: no recs for i =    15           0
(PID.TID 0000.0001) ctrl-wet 6: no recs for i =    16           0
(PID.TID 0000.0001) ctrl-wet 6: no recs for i =    17           0
(PID.TID 0000.0001) ctrl-wet 6: no recs for i =    18           0
(PID.TID 0000.0001) ctrl-wet 6: no recs for i =    19           0
(PID.TID 0000.0001) ctrl-wet 6: no recs for i =    20           0
(PID.TID 0000.0001) ctrl-wet 6: no recs for i =    21           0
(PID.TID 0000.0001) ctrl-wet 6: no recs for i =    22           0
(PID.TID 0000.0001) ctrl-wet 6: no recs for i =    23           0
(PID.TID 0000.0001) ctrl-wet 6: no recs for i =    24           0
(PID.TID 0000.0001) ctrl-wet 6: no recs for i =    25           0
(PID.TID 0000.0001) ctrl-wet 6: no recs for i =    26           0
(PID.TID 0000.0001) ctrl-wet 6: no recs for i =    27           0
(PID.TID 0000.0001) ctrl-wet 6: no recs for i =    28           0
(PID.TID 0000.0001) ctrl-wet 6: no recs for i =    29           0
(PID.TID 0000.0001) ctrl-wet 6: no recs for i =    30           0
(PID.TID 0000.0001) ctrl-wet 6: no recs for i =    31           0
(PID.TID 0000.0001) ctrl-wet 6: no recs for i =    32           0
(PID.TID 0000.0001) ctrl-wet 6: no recs for i =    33           0
(PID.TID 0000.0001) ctrl-wet 6: no recs for i =    34           0
(PID.TID 0000.0001) ctrl-wet 6: no recs for i =    35           0
(PID.TID 0000.0001) ctrl-wet 6: no recs for i =    36           0
(PID.TID 0000.0001) ctrl-wet 6: no recs for i =    37           0
(PID.TID 0000.0001) ctrl-wet 6: no recs for i =    38           0
(PID.TID 0000.0001) ctrl-wet 6: no recs for i =    39           0
(PID.TID 0000.0001) ctrl-wet 6: no recs for i =    40           0
(PID.TID 0000.0001) ctrl-wet 6: no recs for i =    41           0
(PID.TID 0000.0001) ctrl-wet 6: no recs for i =    42           0
(PID.TID 0000.0001) ctrl-wet 6: no recs for i =    43           0
(PID.TID 0000.0001) ctrl-wet 6: no recs for i =    44           0
(PID.TID 0000.0001) ctrl-wet 6: no recs for i =    45           0
(PID.TID 0000.0001) ctrl-wet 6: no recs for i =    46           0
(PID.TID 0000.0001) ctrl-wet 6: no recs for i =    47           0
(PID.TID 0000.0001) ctrl-wet 6: no recs for i =    48           0
(PID.TID 0000.0001) ctrl-wet 6: no recs for i =    49           0
(PID.TID 0000.0001) ctrl-wet 6: no recs for i =    50           0
(PID.TID 0000.0001) ctrl-wet 6: no recs for i =    51           0
(PID.TID 0000.0001) ctrl-wet 6: no recs for i =    52           0
(PID.TID 0000.0001) ctrl-wet 6: no recs for i =    53           0
(PID.TID 0000.0001) ctrl-wet 6: no recs for i =    54           0
(PID.TID 0000.0001) ctrl-wet 6: no recs for i =    55           0
(PID.TID 0000.0001) ctrl-wet 6: no recs for i =    56           0
(PID.TID 0000.0001) ctrl-wet 6: no recs for i =    57           0
(PID.TID 0000.0001) ctrl-wet 6: no recs for i =    58           0
(PID.TID 0000.0001) ctrl-wet 6: no recs for i =    59           0
(PID.TID 0000.0001) ctrl-wet 6: no recs for i =    60           0
(PID.TID 0000.0001) ctrl-wet 6: no recs for i =    61           0
(PID.TID 0000.0001) ctrl-wet 6: no recs for i =    62           0
(PID.TID 0000.0001) ctrl-wet 6: no recs for i =    63           0
(PID.TID 0000.0001) ctrl-wet 6: no recs for i =    64           0
(PID.TID 0000.0001) ctrl-wet 6: no recs for i =    65           0
(PID.TID 0000.0001) ctrl-wet 6: no recs for i =    66           0
(PID.TID 0000.0001) ctrl-wet 6: no recs for i =    67           0
(PID.TID 0000.0001) ctrl-wet 6: no recs for i =    68           0
(PID.TID 0000.0001) ctrl-wet 6: no recs for i =    69           0
(PID.TID 0000.0001) ctrl-wet 6: no recs for i =    70           0
(PID.TID 0000.0001) ctrl-wet 6: no recs for i =    71           0
(PID.TID 0000.0001) ctrl-wet 6: no recs for i =    72           0
(PID.TID 0000.0001) ctrl-wet 6: no recs for i =    73           0
(PID.TID 0000.0001) ctrl-wet 6: no recs for i =    74           0
(PID.TID 0000.0001) ctrl-wet 6: no recs for i =    75           0
(PID.TID 0000.0001) ctrl-wet 6: no recs for i =    76           0
(PID.TID 0000.0001) ctrl-wet 6: no recs for i =    77           0
(PID.TID 0000.0001) ctrl-wet 6: no recs for i =    78           0
(PID.TID 0000.0001) ctrl-wet 6: no recs for i =    79           0
(PID.TID 0000.0001) ctrl-wet 6: no recs for i =    80           0
(PID.TID 0000.0001) ctrl-wet 6: no recs for i =    81           0
(PID.TID 0000.0001) ctrl-wet 6: no recs for i =    82           0
(PID.TID 0000.0001) ctrl-wet 6: no recs for i =    83           0
(PID.TID 0000.0001) ctrl-wet 6: no recs for i =    84           0
(PID.TID 0000.0001) ctrl-wet 6: no recs for i =    85           0
(PID.TID 0000.0001) ctrl-wet 6: no recs for i =    86           0
(PID.TID 0000.0001) ctrl-wet 6: no recs for i =    87           0
(PID.TID 0000.0001) ctrl-wet 6: no recs for i =    88           0
(PID.TID 0000.0001) ctrl-wet 6: no recs for i =    89           0
(PID.TID 0000.0001) ctrl-wet 6: no recs for i =    90           0
(PID.TID 0000.0001) ctrl-wet 6: no recs for i =    91           0
(PID.TID 0000.0001) ctrl-wet 6: no recs for i =    92           0
(PID.TID 0000.0001) ctrl-wet 6: no recs for i =    93           0
(PID.TID 0000.0001) ctrl-wet 6: no recs for i =    94           0
(PID.TID 0000.0001) ctrl-wet 6: no recs for i =    95           0
(PID.TID 0000.0001) ctrl-wet 6: no recs for i =    96           0
(PID.TID 0000.0001) ctrl-wet 6: no recs for i =    97           0
(PID.TID 0000.0001) ctrl-wet 6: no recs for i =    98           0
(PID.TID 0000.0001) ctrl-wet 6: no recs for i =    99           0
(PID.TID 0000.0001) ctrl-wet 6: no recs for i =   100           0
(PID.TID 0000.0001) ctrl-wet 6: no recs for i =   101           0
(PID.TID 0000.0001) ctrl-wet 6: no recs for i =   102           0
(PID.TID 0000.0001) ctrl-wet 6: no recs for i =   103           0
(PID.TID 0000.0001) ctrl-wet 6: no recs for i =   104           0
(PID.TID 0000.0001) ctrl-wet 6: no recs for i =   105           0
(PID.TID 0000.0001) ctrl-wet 6: no recs for i =   106           0
(PID.TID 0000.0001) ctrl-wet 6: no recs for i =   107           0
(PID.TID 0000.0001) ctrl-wet 6: no recs for i =   108           0
(PID.TID 0000.0001) ctrl-wet 6: no recs for i =   109           0
(PID.TID 0000.0001) ctrl-wet 6: no recs for i =   110           0
(PID.TID 0000.0001) ctrl-wet 6: no recs for i =   111           0
(PID.TID 0000.0001) ctrl-wet 6: no recs for i =   112           0
(PID.TID 0000.0001) ctrl-wet 6: no recs for i =   113           0
(PID.TID 0000.0001) ctrl-wet 6: no recs for i =   114           0
(PID.TID 0000.0001) ctrl-wet 6: no recs for i =   115           0
(PID.TID 0000.0001) ctrl-wet 6: no recs for i =   116           0
(PID.TID 0000.0001) ctrl-wet 6: no recs for i =   117           0
(PID.TID 0000.0001) ctrl-wet 6: no recs for i =   118           0
(PID.TID 0000.0001) ctrl-wet 6: no recs for i =   119           0
(PID.TID 0000.0001) ctrl-wet 6: no recs for i =   120           0
(PID.TID 0000.0001) ctrl-wet 6: no recs for i =   121           0
(PID.TID 0000.0001) ctrl-wet 6: no recs for i =   122           0
(PID.TID 0000.0001) ctrl-wet 6: no recs for i =   123           0
(PID.TID 0000.0001) ctrl-wet 6: no recs for i =   124           0
(PID.TID 0000.0001) ctrl-wet 6: no recs for i =   125           0
(PID.TID 0000.0001) ctrl-wet 6: no recs for i =   126           0
(PID.TID 0000.0001) ctrl-wet 6: no recs for i =   127           0
(PID.TID 0000.0001) ctrl-wet 6: no recs for i =   128           0
(PID.TID 0000.0001) ctrl-wet 6: no recs for i =   129           0
(PID.TID 0000.0001) ctrl-wet 6: no recs for i =   130           0
(PID.TID 0000.0001) ctrl-wet 6: no recs for i =   131           0
(PID.TID 0000.0001) ctrl-wet 6: no recs for i =   132           0
(PID.TID 0000.0001) ctrl-wet 6: no recs for i =   133           0
(PID.TID 0000.0001) ctrl-wet 6: no recs for i =   134           0
(PID.TID 0000.0001) ctrl-wet 6: no recs for i =   135           0
(PID.TID 0000.0001) ctrl-wet 6: no recs for i =   136           0
(PID.TID 0000.0001) ctrl-wet 6: no recs for i =   137           0
(PID.TID 0000.0001) ctrl-wet 6: no recs for i =   138           0
(PID.TID 0000.0001) ctrl-wet 6: no recs for i =   139           0
(PID.TID 0000.0001) ctrl-wet 6: no recs for i =   140           0
(PID.TID 0000.0001) ctrl-wet 6: no recs for i =   141           0
(PID.TID 0000.0001) ctrl-wet 6: no recs for i =   142           0
(PID.TID 0000.0001) ctrl-wet 6: no recs for i =   143           0
(PID.TID 0000.0001) ctrl-wet 6: no recs for i =   144           0
(PID.TID 0000.0001) ctrl-wet 6: no recs for i =   145           0
(PID.TID 0000.0001) ctrl-wet 6: no recs for i =   146           0
(PID.TID 0000.0001) ctrl-wet 6: no recs for i =   147           0
(PID.TID 0000.0001) ctrl-wet 6: no recs for i =   148           0
(PID.TID 0000.0001) ctrl-wet 6: no recs for i =   149           0
(PID.TID 0000.0001) ctrl-wet 6: no recs for i =   150           0
(PID.TID 0000.0001) ctrl-wet 6: no recs for i =   151           0
(PID.TID 0000.0001) ctrl-wet 6: no recs for i =   152           0
(PID.TID 0000.0001) ctrl-wet 6: no recs for i =   153           0
(PID.TID 0000.0001) ctrl-wet 6: no recs for i =   154           0
(PID.TID 0000.0001) ctrl-wet 6: no recs for i =   155           0
(PID.TID 0000.0001) ctrl-wet 6: no recs for i =   156           0
(PID.TID 0000.0001) ctrl-wet 6: no recs for i =   157           0
(PID.TID 0000.0001) ctrl-wet 6: no recs for i =   158           0
(PID.TID 0000.0001) ctrl-wet 6: no recs for i =   159           0
(PID.TID 0000.0001) ctrl-wet 6: no recs for i =   160           0
(PID.TID 0000.0001) ctrl-wet 6: no recs for i =   161           0
(PID.TID 0000.0001) ctrl-wet 6: no recs for i =   162           0
(PID.TID 0000.0001) ctrl-wet 6: no recs for i =   163           0
(PID.TID 0000.0001) ctrl-wet 6: no recs for i =   164           0
(PID.TID 0000.0001) ctrl-wet 6: no recs for i =   165           0
(PID.TID 0000.0001) ctrl-wet 6: no recs for i =   166           0
(PID.TID 0000.0001) ctrl-wet 6: no recs for i =   167           0
(PID.TID 0000.0001) ctrl-wet 6: no recs for i =   168           0
(PID.TID 0000.0001) ctrl-wet 6: no recs for i =   169           0
(PID.TID 0000.0001) ctrl-wet 6: no recs for i =   170           0
(PID.TID 0000.0001) ctrl-wet 6: no recs for i =   171           0
(PID.TID 0000.0001) ctrl-wet 6: no recs for i =   172           0
(PID.TID 0000.0001) ctrl-wet 6: no recs for i =   173           0
(PID.TID 0000.0001) ctrl-wet 6: no recs for i =   174           0
(PID.TID 0000.0001) ctrl-wet 6: no recs for i =   175           0
(PID.TID 0000.0001) ctrl-wet 6: no recs for i =   176           0
(PID.TID 0000.0001) ctrl-wet 6: no recs for i =   177           0
(PID.TID 0000.0001) ctrl-wet 6: no recs for i =   178           0
(PID.TID 0000.0001) ctrl-wet 6: no recs for i =   179           0
(PID.TID 0000.0001) ctrl-wet 6: no recs for i =   180           0
(PID.TID 0000.0001) ctrl-wet 6: no recs for i =   181           0
(PID.TID 0000.0001) ctrl-wet 6: no recs for i =   182           0
(PID.TID 0000.0001) ctrl-wet 6: no recs for i =   183           0
(PID.TID 0000.0001) ctrl-wet 6: no recs for i =   184           0
(PID.TID 0000.0001) ctrl-wet 6: no recs for i =   185           0
(PID.TID 0000.0001) ctrl-wet 6: no recs for i =   186           0
(PID.TID 0000.0001) ctrl-wet 6: no recs for i =   187           0
(PID.TID 0000.0001) ctrl-wet 6: no recs for i =   188           0
(PID.TID 0000.0001) ctrl-wet 6: no recs for i =   189           0
(PID.TID 0000.0001) ctrl-wet 6: no recs for i =   190           0
(PID.TID 0000.0001) ctrl-wet 6: no recs for i =   191           0
(PID.TID 0000.0001) ctrl-wet 6: no recs for i =   192           0
(PID.TID 0000.0001) ctrl-wet 6: no recs for i =   193           0
(PID.TID 0000.0001) ctrl-wet 6: no recs for i =   194           0
(PID.TID 0000.0001) ctrl-wet 6: no recs for i =   195           0
(PID.TID 0000.0001) ctrl-wet 6: no recs for i =   196           0
(PID.TID 0000.0001) ctrl-wet 6: no recs for i =   197           0
(PID.TID 0000.0001) ctrl-wet 6: no recs for i =   198           0
(PID.TID 0000.0001) ctrl-wet 6: no recs for i =   199           0
(PID.TID 0000.0001) ctrl-wet 6: no recs for i =   200           0
(PID.TID 0000.0001) ctrl-wet 6: no recs for i =   201           1
(PID.TID 0000.0001) ctrl-wet 6: no recs for i =   202           1
(PID.TID 0000.0001) ctrl-wet 6: no recs for i =   203           1
(PID.TID 0000.0001) ctrl-wet 6: no recs for i =   204           0
(PID.TID 0000.0001) ctrl-wet 6: no recs for i =   205           0
(PID.TID 0000.0001) ctrl-wet 6: no recs for i =   206           0
(PID.TID 0000.0001) ctrl-wet 6: no recs for i =   207           0
(PID.TID 0000.0001) ctrl-wet 6: no recs for i =   208           0
(PID.TID 0000.0001) ctrl-wet 6: no recs for i =   209           0
(PID.TID 0000.0001) ctrl-wet 6: no recs for i =   210           0
(PID.TID 0000.0001) ctrl-wet 6: no recs for i =   211           0
(PID.TID 0000.0001) ctrl-wet 6: no recs for i =   212           0
(PID.TID 0000.0001) ctrl-wet 6: no recs for i =   213           0
(PID.TID 0000.0001) ctrl-wet 6: no recs for i =   214           0
(PID.TID 0000.0001) ctrl-wet 6: no recs for i =   215           0
(PID.TID 0000.0001) ctrl-wet 6: no recs for i =   216           0
(PID.TID 0000.0001) ctrl-wet 6: no recs for i =   217           0
(PID.TID 0000.0001) ctrl-wet 6: no recs for i =   218           0
(PID.TID 0000.0001) ctrl-wet 6: no recs for i =   219           0
(PID.TID 0000.0001) ctrl-wet 6: no recs for i =   220           0
(PID.TID 0000.0001) ctrl-wet 6: no recs for i =   221           0
(PID.TID 0000.0001) ctrl-wet 6: no recs for i =   222           0
(PID.TID 0000.0001) ctrl-wet 6: no recs for i =   223           0
(PID.TID 0000.0001) ctrl-wet 6: no recs for i =   224           0
(PID.TID 0000.0001) ctrl-wet 6: no recs for i =   225           0
(PID.TID 0000.0001) ctrl-wet 6: no recs for i =   226           0
(PID.TID 0000.0001) ctrl-wet 6: no recs for i =   227           0
(PID.TID 0000.0001) ctrl-wet 6: no recs for i =   228           0
(PID.TID 0000.0001) ctrl-wet 6: no recs for i =   229           0
(PID.TID 0000.0001) ctrl-wet 6: no recs for i =   230           0
(PID.TID 0000.0001) ctrl-wet 6: no recs for i =   231           0
(PID.TID 0000.0001) ctrl-wet 6: no recs for i =   232           0
(PID.TID 0000.0001) ctrl-wet 6: no recs for i =   233           0
(PID.TID 0000.0001) ctrl-wet 6: no recs for i =   234           0
(PID.TID 0000.0001) ctrl-wet 6: no recs for i =   235           0
(PID.TID 0000.0001) ctrl-wet 6: no recs for i =   236           0
(PID.TID 0000.0001) ctrl-wet 6: no recs for i =   237           0
(PID.TID 0000.0001) ctrl-wet 6: no recs for i =   238           0
(PID.TID 0000.0001) ctrl-wet 6: no recs for i =   239           0
(PID.TID 0000.0001) ctrl-wet 6: no recs for i =   240           0
(PID.TID 0000.0001) ctrl-wet 6: no recs for i =   241           0
(PID.TID 0000.0001) ctrl-wet 6: no recs for i =   242           0
(PID.TID 0000.0001) ctrl-wet 6: no recs for i =   243           0
(PID.TID 0000.0001) ctrl-wet 6: no recs for i =   244           0
(PID.TID 0000.0001) ctrl-wet 6: no recs for i =   245           0
(PID.TID 0000.0001) ctrl-wet 6: no recs for i =   246           0
(PID.TID 0000.0001) ctrl-wet 6: no recs for i =   247           0
(PID.TID 0000.0001) ctrl-wet 6: no recs for i =   248           0
(PID.TID 0000.0001) ctrl-wet 6: no recs for i =   249           0
(PID.TID 0000.0001) ctrl-wet 6: no recs for i =   250           0
(PID.TID 0000.0001) ctrl-wet 6: no recs for i =   251           0
(PID.TID 0000.0001) ctrl-wet 6: no recs for i =   252           0
(PID.TID 0000.0001) ctrl-wet 6: no recs for i =   253           0
(PID.TID 0000.0001) ctrl-wet 6: no recs for i =   254           0
(PID.TID 0000.0001) ctrl-wet 6: no recs for i =   255           0
(PID.TID 0000.0001) ctrl-wet 6: no recs for i =   256           0
(PID.TID 0000.0001) ctrl-wet 6: no recs for i =   257           0
(PID.TID 0000.0001) ctrl-wet 6: no recs for i =   258           0
(PID.TID 0000.0001) ctrl-wet 6: no recs for i =   259           0
(PID.TID 0000.0001) ctrl-wet 6: no recs for i =   260           0
(PID.TID 0000.0001) ctrl-wet 6: no recs for i =   261           0
(PID.TID 0000.0001) ctrl-wet 6: no recs for i =   262           0
(PID.TID 0000.0001) ctrl-wet 6: no recs for i =   263           0
(PID.TID 0000.0001) ctrl-wet 6: no recs for i =   264           0
(PID.TID 0000.0001) ctrl-wet 6: no recs for i =   265           0
(PID.TID 0000.0001) ctrl-wet 6: no recs for i =   266           0
(PID.TID 0000.0001) ctrl-wet 6: no recs for i =   267           0
(PID.TID 0000.0001) ctrl-wet 6: no recs for i =   268           0
(PID.TID 0000.0001) ctrl-wet 6: no recs for i =   269           0
(PID.TID 0000.0001) ctrl-wet 6: no recs for i =   270           0
(PID.TID 0000.0001) ctrl-wet 6: no recs for i =   271           0
(PID.TID 0000.0001) ctrl-wet 6: no recs for i =   272           0
(PID.TID 0000.0001) ctrl-wet 6: no recs for i =   273           0
(PID.TID 0000.0001) ctrl-wet 6: no recs for i =   274           0
(PID.TID 0000.0001) ctrl-wet 6: no recs for i =   275           0
(PID.TID 0000.0001) ctrl-wet 6: no recs for i =   276           0
(PID.TID 0000.0001) ctrl-wet 6: no recs for i =   277           0
(PID.TID 0000.0001) ctrl-wet 6: no recs for i =   278           0
(PID.TID 0000.0001) ctrl-wet 6: no recs for i =   279           0
(PID.TID 0000.0001) ctrl-wet 6: no recs for i =   280           0
(PID.TID 0000.0001) ctrl-wet 6: no recs for i =   281           0
(PID.TID 0000.0001) ctrl-wet 6: no recs for i =   282           0
(PID.TID 0000.0001) ctrl-wet 6: no recs for i =   283           0
(PID.TID 0000.0001) ctrl-wet 6: no recs for i =   284           0
(PID.TID 0000.0001) ctrl-wet 6: no recs for i =   285           0
(PID.TID 0000.0001) ctrl-wet 6: no recs for i =   286           0
(PID.TID 0000.0001) ctrl-wet 6: no recs for i =   287           0
(PID.TID 0000.0001) ctrl-wet 6: no recs for i =   288           0
(PID.TID 0000.0001) ctrl-wet 6: no recs for i =   289           0
(PID.TID 0000.0001) ctrl-wet 6: no recs for i =   290           0
(PID.TID 0000.0001) ctrl-wet 6: no recs for i =   291           0
(PID.TID 0000.0001) ctrl-wet 6: no recs for i =   292           0
(PID.TID 0000.0001) ctrl-wet 6: no recs for i =   293           0
(PID.TID 0000.0001) ctrl-wet 6: no recs for i =   294           0
(PID.TID 0000.0001) ctrl-wet 6: no recs for i =   295           0
(PID.TID 0000.0001) ctrl-wet 6: no recs for i =   296           0
(PID.TID 0000.0001) ctrl-wet 6: no recs for i =   297           0
(PID.TID 0000.0001) ctrl-wet 6: no recs for i =   298           0
(PID.TID 0000.0001) ctrl-wet 6: no recs for i =   299           0
(PID.TID 0000.0001) ctrl-wet 6: no recs for i =   300           0
(PID.TID 0000.0001) ctrl-wet 6: no recs for i =   301           0
(PID.TID 0000.0001) ctrl-wet 6: no recs for i =   302           0
(PID.TID 0000.0001) ctrl-wet 6: no recs for i =   303           0
(PID.TID 0000.0001) ctrl-wet 6: no recs for i =   304           0
(PID.TID 0000.0001) ctrl-wet 6: no recs for i =   305           0
(PID.TID 0000.0001) ctrl-wet 6: no recs for i =   306           0
(PID.TID 0000.0001) ctrl-wet 6: no recs for i =   307           0
(PID.TID 0000.0001) ctrl-wet 6: no recs for i =   308           0
(PID.TID 0000.0001) ctrl-wet 6: no recs for i =   309           0
(PID.TID 0000.0001) ctrl-wet 6: no recs for i =   310           0
(PID.TID 0000.0001) ctrl-wet 6: no recs for i =   311           0
(PID.TID 0000.0001) ctrl-wet 6: no recs for i =   312           0
(PID.TID 0000.0001) ctrl-wet 6: no recs for i =   313           0
(PID.TID 0000.0001) ctrl-wet 6: no recs for i =   314           0
(PID.TID 0000.0001) ctrl-wet 6: no recs for i =   315           0
(PID.TID 0000.0001) ctrl-wet 6: no recs for i =   316           0
(PID.TID 0000.0001) ctrl-wet 6: no recs for i =   317           0
(PID.TID 0000.0001) ctrl-wet 6: no recs for i =   318           0
(PID.TID 0000.0001) ctrl-wet 6: no recs for i =   319           0
(PID.TID 0000.0001) ctrl-wet 6: no recs for i =   320           0
(PID.TID 0000.0001) ctrl-wet 6: no recs for i =   321           0
(PID.TID 0000.0001) ctrl-wet 6: no recs for i =   322           0
(PID.TID 0000.0001) ctrl-wet 6: no recs for i =   323           0
(PID.TID 0000.0001) ctrl-wet 6: no recs for i =   324           0
(PID.TID 0000.0001) ctrl-wet 6: no recs for i =   325           0
(PID.TID 0000.0001) ctrl-wet 6: no recs for i =   326           0
(PID.TID 0000.0001) ctrl-wet 6: no recs for i =   327           0
(PID.TID 0000.0001) ctrl-wet 6: no recs for i =   328           0
(PID.TID 0000.0001) ctrl-wet 6: no recs for i =   329           0
(PID.TID 0000.0001) ctrl-wet 6: no recs for i =   330           0
(PID.TID 0000.0001) ctrl-wet 6: no recs for i =   331           0
(PID.TID 0000.0001) ctrl-wet 6: no recs for i =   332           0
(PID.TID 0000.0001) ctrl-wet 6: no recs for i =   333           0
(PID.TID 0000.0001) ctrl-wet 6: no recs for i =   334           0
(PID.TID 0000.0001) ctrl-wet 6: no recs for i =   335           0
(PID.TID 0000.0001) ctrl-wet 6: no recs for i =   336           0
(PID.TID 0000.0001) ctrl-wet 6: no recs for i =   337           0
(PID.TID 0000.0001) ctrl-wet 6: no recs for i =   338           0
(PID.TID 0000.0001) ctrl-wet 6: no recs for i =   339           0
(PID.TID 0000.0001) ctrl-wet 6: no recs for i =   340           0
(PID.TID 0000.0001) ctrl-wet 6: no recs for i =   341           0
(PID.TID 0000.0001) ctrl-wet 6: no recs for i =   342           0
(PID.TID 0000.0001) ctrl-wet 6: no recs for i =   343           0
(PID.TID 0000.0001) ctrl-wet 6: no recs for i =   344           0
(PID.TID 0000.0001) ctrl-wet 6: no recs for i =   345           0
(PID.TID 0000.0001) ctrl-wet 6: no recs for i =   346           0
(PID.TID 0000.0001) ctrl-wet 6: no recs for i =   347           0
(PID.TID 0000.0001) ctrl-wet 6: no recs for i =   348           0
(PID.TID 0000.0001) ctrl-wet 6: no recs for i =   349           0
(PID.TID 0000.0001) ctrl-wet 6: no recs for i =   350           0
(PID.TID 0000.0001) ctrl-wet 6: no recs for i =   351           0
(PID.TID 0000.0001) ctrl-wet 6: no recs for i =   352           0
(PID.TID 0000.0001) ctrl-wet 6: no recs for i =   353           0
(PID.TID 0000.0001) ctrl-wet 6: no recs for i =   354           0
(PID.TID 0000.0001) ctrl-wet 6: no recs for i =   355           0
(PID.TID 0000.0001) ctrl-wet 6: no recs for i =   356           0
(PID.TID 0000.0001) ctrl-wet 6: no recs for i =   357           0
(PID.TID 0000.0001) ctrl-wet 6: no recs for i =   358           0
(PID.TID 0000.0001) ctrl-wet 6: no recs for i =   359           0
(PID.TID 0000.0001) ctrl-wet 6: no recs for i =   360           0
(PID.TID 0000.0001) ctrl-wet 6: no recs for i =   361           0
(PID.TID 0000.0001) ctrl-wet 6: no recs for i =   362           0
(PID.TID 0000.0001) ctrl-wet 6: no recs for i =   363           0
(PID.TID 0000.0001) ctrl-wet 6: no recs for i =   364           0
(PID.TID 0000.0001) ctrl-wet 6: no recs for i =   365           0
(PID.TID 0000.0001) ctrl-wet 6: no recs for i =   366           0
(PID.TID 0000.0001) ctrl-wet 6: no recs for i =   367           0
(PID.TID 0000.0001) ctrl-wet 6: no recs for i =   368           0
(PID.TID 0000.0001) ctrl-wet 6: no recs for i =   369           0
(PID.TID 0000.0001) ctrl-wet 6: no recs for i =   370           0
(PID.TID 0000.0001) ctrl-wet 6: no recs for i =   371           0
(PID.TID 0000.0001) ctrl-wet 6: no recs for i =   372           0
(PID.TID 0000.0001) ctrl-wet 6: no recs for i =   373           0
(PID.TID 0000.0001) ctrl-wet 6: no recs for i =   374           0
(PID.TID 0000.0001) ctrl-wet 6: no recs for i =   375           0
(PID.TID 0000.0001) ctrl-wet 6: no recs for i =   376           0
(PID.TID 0000.0001) ctrl-wet 6: no recs for i =   377           0
(PID.TID 0000.0001) ctrl-wet 6: no recs for i =   378           0
(PID.TID 0000.0001) ctrl-wet 6: no recs for i =   379           0
(PID.TID 0000.0001) ctrl-wet 6: no recs for i =   380           0
(PID.TID 0000.0001) ctrl-wet 6: no recs for i =   381           0
(PID.TID 0000.0001) ctrl-wet 6: no recs for i =   382           0
(PID.TID 0000.0001) ctrl-wet 6: no recs for i =   383           0
(PID.TID 0000.0001) ctrl-wet 6: no recs for i =   384           0
(PID.TID 0000.0001) ctrl-wet 6: no recs for i =   385           0
(PID.TID 0000.0001) ctrl-wet 6: no recs for i =   386           0
(PID.TID 0000.0001) ctrl-wet 6: no recs for i =   387           0
(PID.TID 0000.0001) ctrl-wet 6: no recs for i =   388           0
(PID.TID 0000.0001) ctrl-wet 6: no recs for i =   389           0
(PID.TID 0000.0001) ctrl-wet 6: no recs for i =   390           0
(PID.TID 0000.0001) ctrl-wet 6: no recs for i =   391           0
(PID.TID 0000.0001) ctrl-wet 6: no recs for i =   392           0
(PID.TID 0000.0001) ctrl-wet 6: no recs for i =   393           0
(PID.TID 0000.0001) ctrl-wet 6: no recs for i =   394           0
(PID.TID 0000.0001) ctrl-wet 6: no recs for i =   395           0
(PID.TID 0000.0001) ctrl-wet 6: no recs for i =   396           0
(PID.TID 0000.0001) ctrl-wet 6: no recs for i =   397           0
(PID.TID 0000.0001) ctrl-wet 6: no recs for i =   398           0
(PID.TID 0000.0001) ctrl-wet 6: no recs for i =   399           0
(PID.TID 0000.0001) ctrl-wet 6: no recs for i =   400           0
(PID.TID 0000.0001) ctrl-wet 7: flux          1438
(PID.TID 0000.0001) ctrl-wet 8: atmos         1438
(PID.TID 0000.0001) ctrl-wet -------------------------------------------------
(PID.TID 0000.0001) ctrl-wet 13: global nvarlength for Nr =   50     7220976
(PID.TID 0000.0001) ctrl-wet -------------------------------------------------
(PID.TID 0000.0001) ctrl-wet 14: global nWet C/S/W/V k=    1       60646       59295       59493           0
(PID.TID 0000.0001) ctrl-wet 14: global nWet C/S/W/V k=    2       60646       59295       59493           0
(PID.TID 0000.0001) ctrl-wet 14: global nWet C/S/W/V k=    3       59874       58517       58725           0
(PID.TID 0000.0001) ctrl-wet 14: global nWet C/S/W/V k=    4       59387       58040       58258           0
(PID.TID 0000.0001) ctrl-wet 14: global nWet C/S/W/V k=    5       58882       57536       57754           0
(PID.TID 0000.0001) ctrl-wet 14: global nWet C/S/W/V k=    6       58399       57057       57276           0
(PID.TID 0000.0001) ctrl-wet 14: global nWet C/S/W/V k=    7       58052       56735       56936           0
(PID.TID 0000.0001) ctrl-wet 14: global nWet C/S/W/V k=    8       57781       56461       56669           0
(PID.TID 0000.0001) ctrl-wet 14: global nWet C/S/W/V k=    9       57530       56212       56416           0
(PID.TID 0000.0001) ctrl-wet 14: global nWet C/S/W/V k=   10       57283       55964       56154           0
(PID.TID 0000.0001) ctrl-wet 14: global nWet C/S/W/V k=   11       57022       55702       55883           0
(PID.TID 0000.0001) ctrl-wet 14: global nWet C/S/W/V k=   12       56818       55497       55681           0
(PID.TID 0000.0001) ctrl-wet 14: global nWet C/S/W/V k=   13       56634       55322       55509           0
(PID.TID 0000.0001) ctrl-wet 14: global nWet C/S/W/V k=   14       56430       55125       55312           0
(PID.TID 0000.0001) ctrl-wet 14: global nWet C/S/W/V k=   15       56238       54935       55117           0
(PID.TID 0000.0001) ctrl-wet 14: global nWet C/S/W/V k=   16       55975       54689       54858           0
(PID.TID 0000.0001) ctrl-wet 14: global nWet C/S/W/V k=   17       55703       54421       54600           0
(PID.TID 0000.0001) ctrl-wet 14: global nWet C/S/W/V k=   18       55358       54075       54251           0
(PID.TID 0000.0001) ctrl-wet 14: global nWet C/S/W/V k=   19       54964       53666       53853           0
(PID.TID 0000.0001) ctrl-wet 14: global nWet C/S/W/V k=   20       54471       53205       53372           0
(PID.TID 0000.0001) ctrl-wet 14: global nWet C/S/W/V k=   21       53952       52716       52877           0
(PID.TID 0000.0001) ctrl-wet 14: global nWet C/S/W/V k=   22       53489       52249       52409           0
(PID.TID 0000.0001) ctrl-wet 14: global nWet C/S/W/V k=   23       52892       51633       51797           0
(PID.TID 0000.0001) ctrl-wet 14: global nWet C/S/W/V k=   24       52223       50961       51129           0
(PID.TID 0000.0001) ctrl-wet 14: global nWet C/S/W/V k=   25       51696       50480       50635           0
(PID.TID 0000.0001) ctrl-wet 14: global nWet C/S/W/V k=   26       51259       50075       50241           0
(PID.TID 0000.0001) ctrl-wet 14: global nWet C/S/W/V k=   27       50929       49774       49935           0
(PID.TID 0000.0001) ctrl-wet 14: global nWet C/S/W/V k=   28       50664       49532       49678           0
(PID.TID 0000.0001) ctrl-wet 14: global nWet C/S/W/V k=   29       50438       49306       49450           0
(PID.TID 0000.0001) ctrl-wet 14: global nWet C/S/W/V k=   30       50187       49035       49179           0
(PID.TID 0000.0001) ctrl-wet 14: global nWet C/S/W/V k=   31       49964       48805       48937           0
(PID.TID 0000.0001) ctrl-wet 14: global nWet C/S/W/V k=   32       49700       48530       48662           0
(PID.TID 0000.0001) ctrl-wet 14: global nWet C/S/W/V k=   33       49431       48260       48383           0
(PID.TID 0000.0001) ctrl-wet 14: global nWet C/S/W/V k=   34       49176       47993       48108           0
(PID.TID 0000.0001) ctrl-wet 14: global nWet C/S/W/V k=   35       48854       47652       47764           0
(PID.TID 0000.0001) ctrl-wet 14: global nWet C/S/W/V k=   36       48501       47264       47375           0
(PID.TID 0000.0001) ctrl-wet 14: global nWet C/S/W/V k=   37       48098       46846       46951           0
(PID.TID 0000.0001) ctrl-wet 14: global nWet C/S/W/V k=   38       47523       46253       46362           0
(PID.TID 0000.0001) ctrl-wet 14: global nWet C/S/W/V k=   39       46849       45558       45657           0
(PID.TID 0000.0001) ctrl-wet 14: global nWet C/S/W/V k=   40       45984       44670       44751           0
(PID.TID 0000.0001) ctrl-wet 14: global nWet C/S/W/V k=   41       44793       43419       43459           0
(PID.TID 0000.0001) ctrl-wet 14: global nWet C/S/W/V k=   42       42984       41497       41533           0
(PID.TID 0000.0001) ctrl-wet 14: global nWet C/S/W/V k=   43       40302       38691       38718           0
(PID.TID 0000.0001) ctrl-wet 14: global nWet C/S/W/V k=   44       36689       35007       35032           0
(PID.TID 0000.0001) ctrl-wet 14: global nWet C/S/W/V k=   45       31681       30069       29999           0
(PID.TID 0000.0001) ctrl-wet 14: global nWet C/S/W/V k=   46       25595       24028       24031           0
(PID.TID 0000.0001) ctrl-wet 14: global nWet C/S/W/V k=   47       18224       16890       16872           0
(PID.TID 0000.0001) ctrl-wet 14: global nWet C/S/W/V k=   48       11407       10397       10351           0
(PID.TID 0000.0001) ctrl-wet 14: global nWet C/S/W/V k=   49        4597        3913        3912           0
(PID.TID 0000.0001) ctrl-wet 14: global nWet C/S/W/V k=   50         818         624         622           0
(PID.TID 0000.0001) ctrl-wet -------------------------------------------------
(PID.TID 0000.0001) ctrl-wet -------------------------------------------------
(PID.TID 0000.0001) ctrl-wet -------------------------------------------------
(PID.TID 0000.0001) ctrl_init: no. of control variables:            3
(PID.TID 0000.0001) ctrl_init: control vector length:         7220976
(PID.TID 0000.0001) 
(PID.TID 0000.0001) // =======================================================
(PID.TID 0000.0001) // control vector configuration  >>> START <<<
(PID.TID 0000.0001) // =======================================================
(PID.TID 0000.0001) 
(PID.TID 0000.0001)  Total number of ocean points per tile:
(PID.TID 0000.0001)  --------------------------------------
(PID.TID 0000.0001)  snx*sny*nr =    11250
(PID.TID 0000.0001) 
(PID.TID 0000.0001)  Number of ocean points per tile:
(PID.TID 0000.0001)  --------------------------------
(PID.TID 0000.0001)  bi,bj,#(c/s/w): 0001 0001 000719 000491 000711
(PID.TID 0000.0001) 
(PID.TID 0000.0001)  Settings of generic controls:
(PID.TID 0000.0001)  -----------------------------
(PID.TID 0000.0001) 
(PID.TID 0000.0001)  ctrlUseGen  =     T /* use generic controls */
(PID.TID 0000.0001)  -> 3d control, genarr3d no.  1 is in use
(PID.TID 0000.0001)       file       = xx_kapgm
(PID.TID 0000.0001)       weight     = wt_ones.data
(PID.TID 0000.0001)  -> 3d control, genarr3d no.  2 is in use
(PID.TID 0000.0001)       file       = xx_kapredi
(PID.TID 0000.0001)       weight     = wt_ones.data
(PID.TID 0000.0001)  -> 3d control, genarr3d no.  3 is in use
(PID.TID 0000.0001)       file       = xx_diffkr
(PID.TID 0000.0001)       weight     = wt_ones.data
(PID.TID 0000.0001) 
(PID.TID 0000.0001) // =======================================================
(PID.TID 0000.0001) // control vector configuration  >>> END <<<
(PID.TID 0000.0001) // =======================================================
(PID.TID 0000.0001) 
(PID.TID 0000.0001) ------------------------------------------------------------
(PID.TID 0000.0001) DIAGNOSTICS_SET_LEVELS: done
(PID.TID 0000.0001)  Total Nb of available Diagnostics: ndiagt=   205
(PID.TID 0000.0001)  write list of available Diagnostics to file: available_diagnostics.log
(PID.TID 0000.0001) SETDIAG: Allocate  1 x  1 Levels for Diagnostic #    80 oceTAUX
(PID.TID 0000.0001) SETDIAG: Allocate  1 x  1 Levels for Diagnostic #    81 oceTAUY
(PID.TID 0000.0001) SETDIAG: Allocate  1 x  1 Levels for Diagnostic #    84 oceFWflx
(PID.TID 0000.0001) SETDIAG: Allocate  1 x  1 Levels for Diagnostic #    85 oceSflux
(PID.TID 0000.0001) SETDIAG: Allocate  1 x  1 Levels for Diagnostic #    86 oceQnet
(PID.TID 0000.0001) SETDIAG: Allocate  1 x  1 Levels for Diagnostic #    87 oceQsw
(PID.TID 0000.0001) SETDIAG: Allocate 50 x  1 Levels for Diagnostic #    27 SALT
(PID.TID 0000.0001) SETDIAG: Allocate 50 x  1 Levels for Diagnostic #    26 THETA
(PID.TID 0000.0001) SETDIAG: Allocate 50 x  1 Levels for Diagnostic #    45 UVELMASS
(PID.TID 0000.0001) SETDIAG: Allocate 50 x  1 Levels for Diagnostic #    46 VVELMASS
(PID.TID 0000.0001)   space allocated for all diagnostics:     206 levels
(PID.TID 0000.0001)   set mate pointer for diag #    80  oceTAUX  , Parms: UU      U1 , mate:    81
(PID.TID 0000.0001)   set mate pointer for diag #    81  oceTAUY  , Parms: VV      U1 , mate:    80
(PID.TID 0000.0001)   set mate pointer for diag #    45  UVELMASS , Parms: UUr     MR , mate:    46
(PID.TID 0000.0001)   set mate pointer for diag #    46  VVELMASS , Parms: VVr     MR , mate:    45
(PID.TID 0000.0001) DIAGNOSTICS_SET_POINTERS: Set levels for Outp.Stream: state_2d_set1
(PID.TID 0000.0001)  Levels:       1.
(PID.TID 0000.0001) DIAGNOSTICS_SET_POINTERS: done
(PID.TID 0000.0001) ------------------------------------------------------------
(PID.TID 0000.0001) DIAGSTATS_SET_REGIONS: define   0 regions:
(PID.TID 0000.0001) ------------------------------------------------------------
(PID.TID 0000.0001) SETDIAG: Allocate  1 Levels for Stats-Diag #    23 ETAN
(PID.TID 0000.0001) SETDIAG: Allocate 50 Levels for Stats-Diag #    26 THETA
(PID.TID 0000.0001) SETDIAG: Allocate 50 Levels for Stats-Diag #    27 SALT
[...]
(PID.TID 0000.0001) %MON ke_vol                       =   1.3350222116381E+18
(PID.TID 0000.0001) %MON vort_r_min                   =  -2.1880744561267E-05
(PID.TID 0000.0001) %MON vort_r_max                   =   2.3442914509808E-05
(PID.TID 0000.0001) %MON vort_a_mean                  =  -1.9727726999495E-05
(PID.TID 0000.0001) %MON vort_a_sd                    =   7.4543130829636E-05
(PID.TID 0000.0001) %MON vort_p_mean                  =  -2.1759944980914E-05
(PID.TID 0000.0001) %MON vort_p_sd                    =   9.7245947741291E-05
(PID.TID 0000.0001) %MON surfExpan_theta_mean         =  -1.9242802196013E-06
(PID.TID 0000.0001) %MON surfExpan_salt_mean          =  -9.9507835059877E-08
(PID.TID 0000.0001) // =======================================================
(PID.TID 0000.0001) // End MONITOR dynamic field statistics
(PID.TID 0000.0001) // =======================================================
 cg2d: Sum(rhs),rhsMax =  -8.59315065109050E+03  6.78086345499381E-01
 cg2d: Sum(rhs),rhsMax =  -8.59226098191509E+03  6.80579090607937E-01
 cg2d: Sum(rhs),rhsMax =  -8.59137810762954E+03  6.83178549511606E-01
 cg2d: Sum(rhs),rhsMax =  -8.59051092225297E+03  6.85819085439681E-01
 cg2d: Sum(rhs),rhsMax =  -8.58965634084503E+03  6.88437364481787E-01
 cg2d: Sum(rhs),rhsMax =  -8.58878589302113E+03  6.90975750925726E-01
 cg2d: Sum(rhs),rhsMax =  -8.58792648567663E+03  6.93383913325301E-01
 cg2d: Sum(rhs),rhsMax =  -8.58707629065814E+03  6.95620313065114E-01
 cg2d: Sum(rhs),rhsMax =  -8.58624993407247E+03  6.97653204751938E-01
 cg2d: Sum(rhs),rhsMax =  -8.58542804630515E+03  6.99460812696576E-01
 cg2d: Sum(rhs),rhsMax =  -8.58460545522073E+03  7.01030729163041E-01
 cg2d: Sum(rhs),rhsMax =  -8.58378417194233E+03  7.02359916582557E-01
 cg2d: Sum(rhs),rhsMax =  -8.58294183959941E+03  7.03453984575831E-01
 cg2d: Sum(rhs),rhsMax =  -8.58207620848546E+03  7.04326782413269E-01
 cg2d: Sum(rhs),rhsMax =  -8.58127822030701E+03  7.05000183735364E-01
 cg2d: Sum(rhs),rhsMax =  -8.58051345350391E+03  7.05503010734311E-01
 cg2d: Sum(rhs),rhsMax =  -8.57977297550687E+03  7.05869250256177E-01
 cg2d: Sum(rhs),rhsMax =  -8.57903306328109E+03  7.06136745411024E-01
 cg2d: Sum(rhs),rhsMax =  -8.57829430120736E+03  7.06344848331879E-01
 cg2d: Sum(rhs),rhsMax =  -8.57755528673356E+03  7.06540642432260E-01
 cg2d: Sum(rhs),rhsMax =  -8.57683289576783E+03  7.06759159117573E-01
 cg2d: Sum(rhs),rhsMax =  -8.57611363049712E+03  7.07021694261653E-01
 cg2d: Sum(rhs),rhsMax =  -8.57539690839193E+03  7.07353168060209E-01
 cg2d: Sum(rhs),rhsMax =  -8.57467771570065E+03  7.07786206380744E-01
(PID.TID 0000.0001)      cg2d_init_res =   1.12251386091825E+00
(PID.TID 0000.0001)      cg2d_iters(min,last) =      -1      17
(PID.TID 0000.0001)      cg2d_last_res =   4.24510871266993E-05
(PID.TID 0000.0001) // =======================================================
(PID.TID 0000.0001) // Begin MONITOR dynamic field statistics
(PID.TID 0000.0001) // =======================================================
(PID.TID 0000.0001) %MON time_tsnumber                =                174720
(PID.TID 0000.0001) %MON time_secondsf                =   7.8624000000000E+07
(PID.TID 0000.0001) %MON dynstat_eta_max              =   1.1869945092305E+00
(PID.TID 0000.0001) %MON dynstat_eta_min              =  -2.0081505499509E+00
(PID.TID 0000.0001) %MON dynstat_eta_mean             =   6.7811110462791E-02
(PID.TID 0000.0001) %MON dynstat_eta_sd               =   6.7974238128976E-01
(PID.TID 0000.0001) %MON dynstat_eta_del2             =   6.7565417443053E-05
(PID.TID 0000.0001) %MON dynstat_uvel_max             =   1.1012911000152E+00
(PID.TID 0000.0001) %MON dynstat_uvel_min             =  -7.3685565654050E-01
(PID.TID 0000.0001) %MON dynstat_uvel_mean            =   1.6443529196985E-03
(PID.TID 0000.0001) %MON dynstat_uvel_sd              =   2.1499938408162E-02
(PID.TID 0000.0001) %MON dynstat_uvel_del2            =   9.3180907366561E-06
(PID.TID 0000.0001) %MON dynstat_vvel_max             =   6.7447268048244E-01
(PID.TID 0000.0001) %MON dynstat_vvel_min             =  -1.3027510152565E+00
(PID.TID 0000.0001) %MON dynstat_vvel_mean            =   1.5952520727059E-03
(PID.TID 0000.0001) %MON dynstat_vvel_sd              =   2.3346786215775E-02
(PID.TID 0000.0001) %MON dynstat_vvel_del2            =   9.3437770386870E-06
(PID.TID 0000.0001) %MON dynstat_wvel_max             =   1.8490877012948E-03
(PID.TID 0000.0001) %MON dynstat_wvel_min             =  -1.1095264030740E-03
(PID.TID 0000.0001) %MON dynstat_wvel_mean            =  -7.2321586722566E-09
(PID.TID 0000.0001) %MON dynstat_wvel_sd              =   2.5150185397860E-05
(PID.TID 0000.0001) %MON dynstat_wvel_del2            =   2.8360181370495E-08
(PID.TID 0000.0001) %MON dynstat_theta_max            =   3.2105753870208E+01
(PID.TID 0000.0001) %MON dynstat_theta_min            =  -2.0097203514444E+00
(PID.TID 0000.0001) %MON dynstat_theta_mean           =   3.5928687863891E+00
(PID.TID 0000.0001) %MON dynstat_theta_sd             =   4.4430491913454E+00
(PID.TID 0000.0001) %MON dynstat_theta_del2           =   1.0349916531500E-04
(PID.TID 0000.0001) %MON dynstat_salt_max             =   4.0655995380418E+01
(PID.TID 0000.0001) %MON dynstat_salt_min             =   1.6009701701624E+01
(PID.TID 0000.0001) %MON dynstat_salt_mean            =   3.4724991255818E+01
(PID.TID 0000.0001) %MON dynstat_salt_sd              =   3.7901518865112E-01
(PID.TID 0000.0001) %MON dynstat_salt_del2            =   3.0169755508956E-05
(PID.TID 0000.0001) %MON dynstat_sst_max              =   3.2036385880623E+01
(PID.TID 0000.0001) %MON dynstat_sst_min              =  -1.9576780826148E+00
(PID.TID 0000.0001) %MON dynstat_sst_mean             =   1.8173338318352E+01
(PID.TID 0000.0001) %MON dynstat_sst_sd               =   1.0150250950775E+01
(PID.TID 0000.0001) %MON dynstat_sst_del2             =   7.5154732195268E-04
(PID.TID 0000.0001) %MON dynstat_sss_max              =   3.9488715614043E+01
(PID.TID 0000.0001) %MON dynstat_sss_min              =   1.6009701701624E+01
(PID.TID 0000.0001) %MON dynstat_sss_mean             =   3.4655319943432E+01
(PID.TID 0000.0001) %MON dynstat_sss_sd               =   1.2804538719963E+00
(PID.TID 0000.0001) %MON dynstat_sss_del2             =   8.0438974918054E-04
(PID.TID 0000.0001) %MON forcing_qnet_max             =   2.2310256347656E+03
(PID.TID 0000.0001) %MON forcing_qnet_min             =  -2.4242912597656E+03
(PID.TID 0000.0001) %MON forcing_qnet_mean            =  -1.7754419040541E+01
(PID.TID 0000.0001) %MON forcing_qnet_sd              =   2.3355610651656E+02
(PID.TID 0000.0001) %MON forcing_qnet_del2            =   5.8280920349478E-01
(PID.TID 0000.0001) %MON forcing_qsw_max              =   0.0000000000000E+00
(PID.TID 0000.0001) %MON forcing_qsw_min              =  -1.1210372962123E+02
(PID.TID 0000.0001) %MON forcing_qsw_mean             =  -2.1190106239591E+01
(PID.TID 0000.0001) %MON forcing_qsw_sd               =   3.1226765570069E+01
(PID.TID 0000.0001) %MON forcing_qsw_del2             =   2.3424290198544E-02
(PID.TID 0000.0001) %MON forcing_empmr_max            =   1.8126338720322E-02
(PID.TID 0000.0001) %MON forcing_empmr_min            =  -7.7514424920082E-02
(PID.TID 0000.0001) %MON forcing_empmr_mean           =   1.3005623480837E-05
(PID.TID 0000.0001) %MON forcing_empmr_sd             =   4.7920876017537E-04
(PID.TID 0000.0001) %MON forcing_empmr_del2           =   4.3668814263605E-06
(PID.TID 0000.0001) %MON forcing_fu_max               =   8.4320685267448E-01
(PID.TID 0000.0001) %MON forcing_fu_min               =  -7.3731571435928E-01
(PID.TID 0000.0001) %MON forcing_fu_mean              =   8.7549839128498E-03
(PID.TID 0000.0001) %MON forcing_fu_sd                =   1.1690142330925E-01
(PID.TID 0000.0001) %MON forcing_fu_del2              =   1.0987308373697E-04
(PID.TID 0000.0001) %MON forcing_fv_max               =   8.5899617267947E-01
(PID.TID 0000.0001) %MON forcing_fv_min               =  -6.0381072759628E-01
(PID.TID 0000.0001) %MON forcing_fv_mean              =  -1.0948076932285E-03
(PID.TID 0000.0001) %MON forcing_fv_sd                =   1.0450488086740E-01
(PID.TID 0000.0001) %MON forcing_fv_del2              =   9.6354413368297E-05
(PID.TID 0000.0001) %MON trAdv_CFL_u_max              =   7.4199392853568E-03
(PID.TID 0000.0001) %MON trAdv_CFL_v_max              =   7.1372850851001E-03
(PID.TID 0000.0001) %MON trAdv_CFL_w_max              =   2.2782067492125E-02
(PID.TID 0000.0001) %MON advcfl_uvel_max              =   5.6918497906054E-03
(PID.TID 0000.0001) %MON advcfl_vvel_max              =   5.6252178884074E-03
(PID.TID 0000.0001) %MON advcfl_wvel_max              =   2.3708291629867E-02
(PID.TID 0000.0001) %MON advcfl_W_hf_max              =   2.5078350426706E-02
(PID.TID 0000.0001) %MON pe_b_mean                    =   6.1381830647030E-04
(PID.TID 0000.0001) %MON ke_max                       =   7.7846868443023E-01
(PID.TID 0000.0001) %MON ke_mean                      =   4.8825738035372E-04
(PID.TID 0000.0001) %MON ke_vol                       =   1.3350221562930E+18
(PID.TID 0000.0001) %MON vort_r_min                   =  -1.5736436000011E-05
(PID.TID 0000.0001) %MON vort_r_max                   =   1.7502524618316E-05
(PID.TID 0000.0001) %MON vort_a_mean                  =  -1.9727725837673E-05
(PID.TID 0000.0001) %MON vort_a_sd                    =   7.4543056885228E-05
(PID.TID 0000.0001) %MON vort_p_mean                  =  -2.1759944171080E-05
(PID.TID 0000.0001) %MON vort_p_sd                    =   9.7246169829568E-05
(PID.TID 0000.0001) %MON surfExpan_theta_mean         =  -8.9292245370010E-07
(PID.TID 0000.0001) %MON surfExpan_salt_mean          =   1.4162691123808E-08
(PID.TID 0000.0001) // =======================================================
(PID.TID 0000.0001) // End MONITOR dynamic field statistics
(PID.TID 0000.0001) // =======================================================
(PID.TID 0000.0001) %CHECKPOINT    174720 0000174720
 cg2d: Sum(rhs),rhsMax =  -8.57394915768701E+03  7.08349560453738E-01
 cg2d: Sum(rhs),rhsMax =  -8.57322718687138E+03  7.09060735411907E-01
 cg2d: Sum(rhs),rhsMax =  -8.57255957581330E+03  7.09927035510960E-01
 cg2d: Sum(rhs),rhsMax =  -8.57188879190271E+03  7.10949544831264E-01
 cg2d: Sum(rhs),rhsMax =  -8.57121856397541E+03  7.12124095897487E-01
 cg2d: Sum(rhs),rhsMax =  -8.57054295972183E+03  7.13440695146087E-01
 cg2d: Sum(rhs),rhsMax =  -8.56986678182023E+03  7.14883824562469E-01
 cg2d: Sum(rhs),rhsMax =  -8.56920729443324E+03  7.16432394017993E-01
 cg2d: Sum(rhs),rhsMax =  -8.56856714935496E+03  7.18060652347183E-01
 cg2d: Sum(rhs),rhsMax =  -8.56792866900998E+03  7.19738919228457E-01
 cg2d: Sum(rhs),rhsMax =  -8.56729610860041E+03  7.21434672387937E-01
 cg2d: Sum(rhs),rhsMax =  -8.56664959961297E+03  7.23112817728893E-01
 cg2d: Sum(rhs),rhsMax =  -8.56601558831440E+03  7.24770182871251E-01
 cg2d: Sum(rhs),rhsMax =  -8.56536661981253E+03  7.26324557177896E-01
 cg2d: Sum(rhs),rhsMax =  -8.56471675516807E+03  7.27712820914174E-01
 cg2d: Sum(rhs),rhsMax =  -8.56408480110487E+03  7.28920654875635E-01
 cg2d: Sum(rhs),rhsMax =  -8.56345026525613E+03  7.29938858158839E-01
 cg2d: Sum(rhs),rhsMax =  -8.56281026452634E+03  7.30737451188066E-01
 cg2d: Sum(rhs),rhsMax =  -8.56217435495486E+03  7.31275428988603E-01
 cg2d: Sum(rhs),rhsMax =  -8.56152415332287E+03  7.31516582827366E-01
 cg2d: Sum(rhs),rhsMax =  -8.56087485579150E+03  7.31434935335016E-01
 cg2d: Sum(rhs),rhsMax =  -8.56022185082517E+03  7.31012366018293E-01
 cg2d: Sum(rhs),rhsMax =  -8.55956444687801E+03  7.30239367419949E-01
 cg2d: Sum(rhs),rhsMax =  -8.55890970510766E+03  7.29196270714589E-01
(PID.TID 0000.0001)      cg2d_init_res =   9.30461561290093E-01
(PID.TID 0000.0001)      cg2d_iters(min,last) =      -1      16
(PID.TID 0000.0001)      cg2d_last_res =   4.12876663122827E-05
(PID.TID 0000.0001) // =======================================================
(PID.TID 0000.0001) // Begin MONITOR dynamic field statistics
(PID.TID 0000.0001) // =======================================================
(PID.TID 0000.0001) %MON time_tsnumber                =                174744
(PID.TID 0000.0001) %MON time_secondsf                =   7.8634800000000E+07
(PID.TID 0000.0001) %MON dynstat_eta_max              =   1.2275789856770E+00
(PID.TID 0000.0001) %MON dynstat_eta_min              =  -2.0025813190746E+00
(PID.TID 0000.0001) %MON dynstat_eta_mean             =   6.7686412329106E-02
(PID.TID 0000.0001) %MON dynstat_eta_sd               =   6.7842319032579E-01
(PID.TID 0000.0001) %MON dynstat_eta_del2             =   6.5281694706741E-05
(PID.TID 0000.0001) %MON dynstat_uvel_max             =   1.0745165685411E+00
(PID.TID 0000.0001) %MON dynstat_uvel_min             =  -7.2618514795074E-01
(PID.TID 0000.0001) %MON dynstat_uvel_mean            =   1.0997630883874E-03
(PID.TID 0000.0001) %MON dynstat_uvel_sd              =   2.1198107099230E-02
(PID.TID 0000.0001) %MON dynstat_uvel_del2            =   8.9666248501448E-06
(PID.TID 0000.0001) %MON dynstat_vvel_max             =   6.5915849688056E-01
(PID.TID 0000.0001) %MON dynstat_vvel_min             =  -1.2774390855908E+00
(PID.TID 0000.0001) %MON dynstat_vvel_mean            =   1.5512099297928E-03
(PID.TID 0000.0001) %MON dynstat_vvel_sd              =   2.3069766380693E-02
(PID.TID 0000.0001) %MON dynstat_vvel_del2            =   8.9669112452450E-06
(PID.TID 0000.0001) %MON dynstat_wvel_max             =   1.8982325717832E-03
(PID.TID 0000.0001) %MON dynstat_wvel_min             =  -8.6262575319453E-04
(PID.TID 0000.0001) %MON dynstat_wvel_mean            =   4.4951109581073E-08
(PID.TID 0000.0001) %MON dynstat_wvel_sd              =   2.4727697712279E-05
(PID.TID 0000.0001) %MON dynstat_wvel_del2            =   2.6865655089348E-08
(PID.TID 0000.0001) %MON dynstat_theta_max            =   3.2088643449602E+01
(PID.TID 0000.0001) %MON dynstat_theta_min            =  -1.9983635319676E+00
(PID.TID 0000.0001) %MON dynstat_theta_mean           =   3.5928855674222E+00
(PID.TID 0000.0001) %MON dynstat_theta_sd             =   4.4431331786288E+00
(PID.TID 0000.0001) %MON dynstat_theta_del2           =   1.0274794882183E-04
(PID.TID 0000.0001) %MON dynstat_salt_max             =   4.0655995250466E+01
(PID.TID 0000.0001) %MON dynstat_salt_min             =   1.5947052596760E+01
(PID.TID 0000.0001) %MON dynstat_salt_mean            =   3.4724985017301E+01
(PID.TID 0000.0001) %MON dynstat_salt_sd              =   3.7904582950571E-01
(PID.TID 0000.0001) %MON dynstat_salt_del2            =   3.0683015723369E-05
(PID.TID 0000.0001) %MON dynstat_sst_max              =   3.2011158488473E+01
(PID.TID 0000.0001) %MON dynstat_sst_min              =  -1.9571025469837E+00
(PID.TID 0000.0001) %MON dynstat_sst_mean             =   1.8175168830536E+01
(PID.TID 0000.0001) %MON dynstat_sst_sd               =   1.0157178927827E+01
(PID.TID 0000.0001) %MON dynstat_sst_del2             =   7.4926934488381E-04
(PID.TID 0000.0001) %MON dynstat_sss_max              =   3.9486191422811E+01
(PID.TID 0000.0001) %MON dynstat_sss_min              =   1.5947052596760E+01
(PID.TID 0000.0001) %MON dynstat_sss_mean             =   3.4653766825345E+01
(PID.TID 0000.0001) %MON dynstat_sss_sd               =   1.2835439276242E+00
(PID.TID 0000.0001) %MON dynstat_sss_del2             =   8.3840705266267E-04
(PID.TID 0000.0001) %MON forcing_qnet_max             =   2.1227744140625E+03
(PID.TID 0000.0001) %MON forcing_qnet_min             =  -1.6756351318359E+03
(PID.TID 0000.0001) %MON forcing_qnet_mean            =  -2.8310780388085E+01
(PID.TID 0000.0001) %MON forcing_qnet_sd              =   2.3027112940013E+02
(PID.TID 0000.0001) %MON forcing_qnet_del2            =   5.7702042831810E-01
(PID.TID 0000.0001) %MON forcing_qsw_max              =   0.0000000000000E+00
(PID.TID 0000.0001) %MON forcing_qsw_min              =  -1.1162777608672E+02
(PID.TID 0000.0001) %MON forcing_qsw_mean             =  -2.2664643095966E+01
(PID.TID 0000.0001) %MON forcing_qsw_sd               =   3.1344730637122E+01
(PID.TID 0000.0001) %MON forcing_qsw_del2             =   2.3280447134859E-02
(PID.TID 0000.0001) %MON forcing_empmr_max            =   2.8851253911853E-02
(PID.TID 0000.0001) %MON forcing_empmr_min            =  -9.0935952961445E-02
(PID.TID 0000.0001) %MON forcing_empmr_mean           =   1.1840116071610E-05
(PID.TID 0000.0001) %MON forcing_empmr_sd             =   4.5484289947294E-04
(PID.TID 0000.0001) %MON forcing_empmr_del2           =   4.3584866213508E-06
(PID.TID 0000.0001) %MON forcing_fu_max               =   8.0058181285858E-01
(PID.TID 0000.0001) %MON forcing_fu_min               =  -6.9761323928833E-01
(PID.TID 0000.0001) %MON forcing_fu_mean              =   8.5082976701561E-03
(PID.TID 0000.0001) %MON forcing_fu_sd                =   1.1800776092013E-01
(PID.TID 0000.0001) %MON forcing_fu_del2              =   1.1043036803070E-04
(PID.TID 0000.0001) %MON forcing_fv_max               =   9.0856942534447E-01
(PID.TID 0000.0001) %MON forcing_fv_min               =  -6.5555113554001E-01
(PID.TID 0000.0001) %MON forcing_fv_mean              =  -7.2377555520263E-04
(PID.TID 0000.0001) %MON forcing_fv_sd                =   1.0461998175030E-01
(PID.TID 0000.0001) %MON forcing_fv_del2              =   1.0000974579951E-04
(PID.TID 0000.0001) %MON trAdv_CFL_u_max              =   7.4234785317911E-03
(PID.TID 0000.0001) %MON trAdv_CFL_v_max              =   7.2097999824021E-03
(PID.TID 0000.0001) %MON trAdv_CFL_w_max              =   2.8062897182761E-02
(PID.TID 0000.0001) %MON advcfl_uvel_max              =   5.7155083060276E-03
(PID.TID 0000.0001) %MON advcfl_vvel_max              =   5.6396631901657E-03
(PID.TID 0000.0001) %MON advcfl_wvel_max              =   2.9211445478751E-02
(PID.TID 0000.0001) %MON advcfl_W_hf_max              =   3.0906734377802E-02
(PID.TID 0000.0001) %MON pe_b_mean                    =   6.1143936693252E-04
(PID.TID 0000.0001) %MON ke_max                       =   7.5937441651511E-01
(PID.TID 0000.0001) %MON ke_mean                      =   4.7505566750103E-04
(PID.TID 0000.0001) %MON ke_vol                       =   1.3350221114669E+18
(PID.TID 0000.0001) %MON vort_r_min                   =  -1.7944904155864E-05
(PID.TID 0000.0001) %MON vort_r_max                   =   1.7581152805071E-05
(PID.TID 0000.0001) %MON vort_a_mean                  =  -1.9727725818931E-05
(PID.TID 0000.0001) %MON vort_a_sd                    =   7.4542967369074E-05
(PID.TID 0000.0001) %MON vort_p_mean                  =  -2.1759944901407E-05
(PID.TID 0000.0001) %MON vort_p_sd                    =   9.7246231536821E-05
(PID.TID 0000.0001) %MON surfExpan_theta_mean         =   9.6380077188370E-09
(PID.TID 0000.0001) %MON surfExpan_salt_mean          =  -9.4438977905824E-08
(PID.TID 0000.0001) // =======================================================
(PID.TID 0000.0001) // End MONITOR dynamic field statistics
(PID.TID 0000.0001) // =======================================================
 cg2d: Sum(rhs),rhsMax =  -8.55824183440018E+03  7.27630093162920E-01
 cg2d: Sum(rhs),rhsMax =  -8.55760834321393E+03  7.25649759902554E-01
 cg2d: Sum(rhs),rhsMax =  -8.55696412513777E+03  7.23346013580586E-01
 cg2d: Sum(rhs),rhsMax =  -8.55634951665465E+03  7.20711523115893E-01
 cg2d: Sum(rhs),rhsMax =  -8.55561728924169E+03  7.17729102194449E-01
 cg2d: Sum(rhs),rhsMax =  -8.55499304010958E+03  7.14407489697858E-01
 cg2d: Sum(rhs),rhsMax =  -8.55436912860181E+03  7.10771905800891E-01
 cg2d: Sum(rhs),rhsMax =  -8.55376415215044E+03  7.06851871589266E-01
 cg2d: Sum(rhs),rhsMax =  -8.55314629817468E+03  7.02678198059330E-01
 cg2d: Sum(rhs),rhsMax =  -8.55253013969758E+03  6.98282815891678E-01
 cg2d: Sum(rhs),rhsMax =  -8.55191114568357E+03  6.93699523763802E-01
 cg2d: Sum(rhs),rhsMax =  -8.55128618268603E+03  6.88967309868565E-01
(PID.TID 0000.0001) DIAGSTATS_CLOSE_IO: close file: dynStDiag.0000174564.txt , unit=    37
(PID.TID 0000.0001) %CHECKPOINT    174756 ckptA
