(PID.TID 0000.0001) 
(PID.TID 0000.0001) // ======================================================
(PID.TID 0000.0001) //                      MITgcm UV
(PID.TID 0000.0001) //                      =========
(PID.TID 0000.0001) // ======================================================
(PID.TID 0000.0001) // execution environment starting up...
(PID.TID 0000.0001) 
(PID.TID 0000.0001) // MITgcmUV version:  checkpoint66k
(PID.TID 0000.0001) // Build user:        dmenemen
(PID.TID 0000.0001) // Build host:        r623i3n2
(PID.TID 0000.0001) // Build date:        Sun Oct  8 11:07:17 PDT 2017
(PID.TID 0000.0001) 
(PID.TID 0000.0001) // =======================================================
(PID.TID 0000.0001) // Execution Environment parameter file "eedata"
(PID.TID 0000.0001) // =======================================================
(PID.TID 0000.0001) ># Example "eedata" file
(PID.TID 0000.0001) ># Lines beginning "#" are comments
(PID.TID 0000.0001) ># nTx - No. threads per process in X
(PID.TID 0000.0001) ># nTy - No. threads per process in Y
(PID.TID 0000.0001) > &EEPARMS
(PID.TID 0000.0001) > useCubedSphereExchange=.TRUE.,
(PID.TID 0000.0001) > nTx=1,
(PID.TID 0000.0001) > nTy=1,
(PID.TID 0000.0001) > &
(PID.TID 0000.0001) 
(PID.TID 0000.0001) // =======================================================
(PID.TID 0000.0001) // Computational Grid Specification ( see files "SIZE.h" )
(PID.TID 0000.0001) //                                  ( and "eedata"       )
(PID.TID 0000.0001) // =======================================================
(PID.TID 0000.0001)      nPx =   96 ; /* No. processes in X */
(PID.TID 0000.0001)      nPy =    1 ; /* No. processes in Y */
(PID.TID 0000.0001)      nSx =    1 ; /* No. tiles in X per process */
(PID.TID 0000.0001)      nSy =    1 ; /* No. tiles in Y per process */
(PID.TID 0000.0001)      sNx =   30 ; /* Tile size in X */
(PID.TID 0000.0001)      sNy =   30 ; /* Tile size in Y */
(PID.TID 0000.0001)      OLx =    8 ; /* Tile overlap distance in X */
(PID.TID 0000.0001)      OLy =    8 ; /* Tile overlap distance in Y */
(PID.TID 0000.0001)      nTx =    1 ; /* No. threads in X per process */
(PID.TID 0000.0001)      nTy =    1 ; /* No. threads in Y per process */
(PID.TID 0000.0001)       Nr =   50 ; /* No. levels in the vertical   */
(PID.TID 0000.0001)       Nx = 2880 ; /* Total domain size in X ( = nPx*nSx*sNx ) */
(PID.TID 0000.0001)       Ny =   30 ; /* Total domain size in Y ( = nPy*nSy*sNy ) */
(PID.TID 0000.0001)   nTiles =    1 ; /* Total no. tiles per process ( = nSx*nSy ) */
(PID.TID 0000.0001)   nProcs =   96 ; /* Total no. processes ( = nPx*nPy ) */
(PID.TID 0000.0001) nThreads =    1 ; /* Total no. threads per process ( = nTx*nTy ) */
(PID.TID 0000.0001) usingMPI =    T ; /* Flag used to control whether MPI is in use */
(PID.TID 0000.0001)                   /*  note: To execute a program with MPI calls */
(PID.TID 0000.0001)                   /*  it must be launched appropriately e.g     */
(PID.TID 0000.0001)                   /*  "mpirun -np 64 ......"                    */
(PID.TID 0000.0001) useCoupler=    F ;/* Flag used to control communications with   */
(PID.TID 0000.0001)                   /*  other model components, through a coupler */
(PID.TID 0000.0001) debugMode =    F ; /* print debug msg. (sequence of S/R calls)  */
(PID.TID 0000.0001) printMapIncludesZeros=    F ; /* print zeros in Std.Output maps */
(PID.TID 0000.0001) maxLengthPrt1D=   65 /* maxLength of 1D array printed to StdOut */
(PID.TID 0000.0001) 
(PID.TID 0000.0001) ======= Starting MPI parallel Run =========
(PID.TID 0000.0001)  My Processor Name (len:  8 ) = r465i3n3
(PID.TID 0000.0001)  Located at (  0,  0) on processor grid (0: 95,0:  0)
(PID.TID 0000.0001)  Origin at  (     1,     1) on global grid (1:  2880,1:    30)
(PID.TID 0000.0001)  North neighbor = processor 0000
(PID.TID 0000.0001)  South neighbor = processor 0000
(PID.TID 0000.0001)   East neighbor = processor 0001
(PID.TID 0000.0001)   West neighbor = processor 0095
(PID.TID 0000.0001) // ======================================================
(PID.TID 0000.0001) // Mapping of tiles to threads
(PID.TID 0000.0001) // ======================================================
(PID.TID 0000.0001) // -o- Thread   1, tiles (   1:   1,   1:   1)
(PID.TID 0000.0001) 
(PID.TID 0000.0001) W2_READPARMS: opening data.exch2
(PID.TID 0000.0001)  OPEN_COPY_DATA_FILE: opening file data.exch2
(PID.TID 0000.0001) // =======================================================
(PID.TID 0000.0001) // Parameter file "data.exch2"
(PID.TID 0000.0001) // =======================================================
(PID.TID 0000.0001) ># EXCH2 Package: Wrapper-2 User Choice
(PID.TID 0000.0001) >#--------------------
(PID.TID 0000.0001) >#  preDefTopol   :: pre-defined Topology selector:
(PID.TID 0000.0001) >#                :: = 0 : topology defined from processing "data.exch2";
(PID.TID 0000.0001) >#                :: = 1 : simple, single facet topology;
(PID.TID 0000.0001) >#                :: = 2 : customized topology (w2_set_myown_facets)
(PID.TID 0000.0001) >#                :: = 3 : 6-facet Cube (3 face-dims: nRed, nGreen, nBlue).
(PID.TID 0000.0001) >#  dimsFacets    :: facet pair of dimensions (n1x,n1y, n2x,n2y ...)
(PID.TID 0000.0001) >#  facetEdgeLink :: Face-Edge connectivity map:
(PID.TID 0000.0001) >#    facetEdgeLink(i,j)=XX.1 : face(j)-edge(i) (i=1,2,3,4 <==> N,S,E,W)
(PID.TID 0000.0001) >#    is connected to Northern edge of face "XX" ; similarly,
(PID.TID 0000.0001) >#    = XX.2 : to Southern.E, XX.3 = Eastern.E, XX.4 = Western.E of face "XX"
(PID.TID 0000.0001) >#  blankList     :: List of "blank" tiles
(PID.TID 0000.0001) >#  W2_mapIO      :: global map IO selector (-1 = old type ; 0 = 1 long line in X
(PID.TID 0000.0001) >#                :: 1 = compact, mostly in Y dir)
(PID.TID 0000.0001) >#  W2_printMsg   :: option for information messages printing
(PID.TID 0000.0001) >#                :: <0 : write to log file ; =0 : minimum print ;
(PID.TID 0000.0001) >#                :: =1 : no duplicated print ; =2 : all processes do print
(PID.TID 0000.0001) >#--------------------
(PID.TID 0000.0001) > &W2_EXCH2_PARM01
(PID.TID 0000.0001) >  W2_printMsg= 0,
(PID.TID 0000.0001) >  W2_mapIO   = 1,
(PID.TID 0000.0001) >#
(PID.TID 0000.0001) >  preDefTopol=0,
(PID.TID 0000.0001) >#-- 5 facets llc_120 topology (drop facet 6 and its connection):
(PID.TID 0000.0001) >  dimsFacets(1:10) = 90, 270, 90, 270, 90, 90, 270, 90, 270, 90,
(PID.TID 0000.0001) >  facetEdgeLink(1:4,1)= 3.4, 0. , 2.4, 5.1,
(PID.TID 0000.0001) >  facetEdgeLink(1:4,2)= 3.2, 0. , 4.2, 1.3,
(PID.TID 0000.0001) >  facetEdgeLink(1:4,3)= 5.4, 2.1, 4.4, 1.1,
(PID.TID 0000.0001) >  facetEdgeLink(1:4,4)= 5.2, 2.3, 0. , 3.3,
(PID.TID 0000.0001) >  facetEdgeLink(1:4,5)= 1.4, 4.1, 0. , 3.1,
(PID.TID 0000.0001) >#-- full 6 facets llc_120 topology (equivalent to default preDefTopol=3):
(PID.TID 0000.0001) ># dimsFacets(1:12) = 120, 360, 120, 360, 120, 120, 360, 120, 360, 120, 120, 120,
(PID.TID 0000.0001) ># facetEdgeLink(1:4,1)= 3.4, 6.1, 2.4, 5.1,
(PID.TID 0000.0001) ># facetEdgeLink(1:4,2)= 3.2, 6.3, 4.2, 1.3,
(PID.TID 0000.0001) ># facetEdgeLink(1:4,3)= 5.4, 2.1, 4.4, 1.1,
(PID.TID 0000.0001) ># facetEdgeLink(1:4,4)= 5.2, 2.3, 6.2, 3.3,
(PID.TID 0000.0001) ># facetEdgeLink(1:4,5)= 1.4, 4.1, 6.4, 3.1,
(PID.TID 0000.0001) ># facetEdgeLink(1:4,6)= 1.2, 4.3, 2.2, 5.3,
(PID.TID 0000.0001) >#
(PID.TID 0000.0001) >#90x30   nprocs = 36
(PID.TID 0000.0001) ># blankList(1:3)=1,10,11,
(PID.TID 0000.0001) >#30x90
(PID.TID 0000.0001) >#
(PID.TID 0000.0001) >#45x30   nprocs = 72
(PID.TID 0000.0001) ># blankList(1:6)=1,2,19,20,21,22
(PID.TID 0000.0001) >#30x45   nprocs = 68
(PID.TID 0000.0001) ># blankList(1:10)=2,3,19,20,21,35,51,60,69,78
(PID.TID 0000.0001) >#45x45   nprocs = 48
(PID.TID 0000.0001) ># blankList(1:4)=2,13,14,23
(PID.TID 0000.0001) >#30x30   nprocs = 96
(PID.TID 0000.0001) >  blankList(1:21)=1,2,3,5,6,28,29,30,31,32,33,49,50,52,53,72,81,90,99,108,117
(PID.TID 0000.0001) >#30x30   nprocs = 112
(PID.TID 0000.0001) ># blankList(1:5)=2,3,28,29,30
(PID.TID 0000.0001) >#15x30   nprocs = 192
(PID.TID 0000.0001) ># blankList(1:42)=1,2,3,4,5,6,9,10,11,12,55,56,57,58,59,60,61,62,63,64,65,66,
(PID.TID 0000.0001) >#            97,98,99,100,103,104,105,106,143,144,
(PID.TID 0000.0001) >#            161,162,179,180,197,198,215,216,233,234
(PID.TID 0000.0001) >#15x15   nprocs = 360
(PID.TID 0000.0001) ># blankList(1:108)=1,2,3,4,5,6,7,8,9,10,11,12,14,15,16,17,18,21,22,23,24,
(PID.TID 0000.0001) >#  65,71,75,76,90,95,96,101,102,109,110,111,112,113,114,115,116,117,118,119,
(PID.TID 0000.0001) >#  120,121,122,123,124,125,126,127,128,129,130,131,132,
(PID.TID 0000.0001) >#  188,189,190,193,194,195,196,199,
(PID.TID 0000.0001) >#  200,201,202,203,205,206,207,208,209,211,212,213,214,215,216,242,247,253,
(PID.TID 0000.0001) >#  267,268,269,270,287,288,305,306,323,324,341,342,359,360,362,376,377,378,
(PID.TID 0000.0001) >#  380,381,382,395,396,400,412,413,414,430,
(PID.TID 0000.0001) >#note: it seems that 8 of the followig 9 tiles could be added to 15x15 blank
(PID.TID 0000.0001) >#  list to reach 352=22*16 cores : 431 432 440 441 448 449 450 467 468
(PID.TID 0000.0001) > &
(PID.TID 0000.0001) 
(PID.TID 0000.0001) W2_READPARMS: finished reading data.exch2
(PID.TID 0000.0001) W2_useE2ioLayOut=    T ;/* T: use Exch2 glob IO map; F: use model default */
(PID.TID 0000.0001) W2_mapIO        =   1 ; /* select option for Exch2 global-IO map */
(PID.TID 0000.0001) W2_printMsg     =   0 ; /* select option for printing information */
(PID.TID 0000.0001) ===== Start setting W2 TOPOLOGY:
(PID.TID 0000.0001) W2_E2SETUP: number of Active Tiles =      96
(PID.TID 0000.0001) W2_E2SETUP: number of Blank Tiles  =      21
(PID.TID 0000.0001) W2_E2SETUP: Total number of Tiles  =     117
(PID.TID 0000.0001) W2_SET_GEN_FACETS: preDefTopol=  0 selected
(PID.TID 0000.0001) W2_SET_GEN_FACETS: Number of facets =  5 (inferred from "dimsFacets")
(PID.TID 0000.0001) W2_E2SETUP: Total number of Facets =       5
(PID.TID 0000.0001) W2_SET_F2F_INDEX: index matrix for connected Facet-Edges:
(PID.TID 0000.0001) ** WARNING ** S.Edge of facet #  1 disconnected (facet_link=  0.00)
(PID.TID 0000.0001) ** WARNING ** S.Edge of facet #  2 disconnected (facet_link=  0.00)
(PID.TID 0000.0001) ** WARNING ** E.Edge of facet #  4 disconnected (facet_link=  0.00)
(PID.TID 0000.0001) ** WARNING ** E.Edge of facet #  5 disconnected (facet_link=  0.00)
(PID.TID 0000.0001) W2_SET_MAP_TILES: tile mapping within facet and global Map:
(PID.TID 0000.0001)  W2_mapIO =   90 (=    3*sNx)
(PID.TID 0000.0001)  Global Map (IO): X-size=      90 , Y-size=    1170
(PID.TID 0000.0001) W2_SET_MAP_TILES: tile offset within facet and global Map:
- facet  1 : X-size=    90 , Y-size=   270 ;   27 tiles (Tx,Ty=   3,   9)
- facet  2 : X-size=    90 , Y-size=   270 ;   27 tiles (Tx,Ty=   3,   9)
- facet  3 : X-size=    90 , Y-size=    90 ;    9 tiles (Tx,Ty=   3,   3)
- facet  4 : X-size=   270 , Y-size=    90 ;   27 tiles (Tx,Ty=   9,   3)
- facet  5 : X-size=   270 , Y-size=    90 ;   27 tiles (Tx,Ty=   9,   3)
(PID.TID 0000.0001) W2_SET_MAP_CUMSUM: setting Facet Matrix for CUMUL-SUM
(PID.TID 0000.0001) W2_SET_MAP_CUMSUM: set    4 /   5 active facets (pass,type=   1, 1)
 Facet Matrix for CUMUL-SUM (nFacets=   5, nActive=   5 ):
- facet  1 :  0  0 ,  0  0 ,  0  0 ,  0  0 ,  0  0 ,
- facet  2 :  1  0 ,  0  0 ,  0  0 ,  0  0 ,  0  0 ,
- facet  3 :  1  0 ,  0  1 ,  0  0 ,  0  0 ,  0  0 ,
- facet  4 :  1  0 ,  0  1 ,  1  0 ,  0  0 ,  0  0 ,
- facet  5 :  1  0 ,  0  1 ,  1  0 ,  0  1 ,  0  0 ,
 missing-corner Tile for CUMUL-SUM (nTiles=   117 ): W2_tMC1=    25 , W2_tMC2=     0
(PID.TID 0000.0001) W2_SET_MAP_CUMSUM: done (skip Tile Matrix setting)
(PID.TID 0000.0001) W2_SET_TILE2TILES: tile neighbours and index connection:
(PID.TID 0000.0001) current Max.Nb.Neighbours (e.g., on tile    7 ) =  4
(PID.TID 0000.0001) ===== W2 TILE TOPOLOGY =====
(PID.TID 0000.0001)  TILE:     4 (bi,bj=   1   1 ), Nb of Neighbours =  2
(PID.TID 0000.0001)     NEIGHBOUR  1 = TILE    7 (n=  2) Comm = MSG (PROC=    2)
(PID.TID 0000.0001)     NEIGHBOUR  2 = TILE  116 (n=  1) Comm = MSG (PROC=   96)
(PID.TID 0000.0001) =====       setting W2 TOPOLOGY: Done
(PID.TID 0000.0001) 
(PID.TID 0000.0001)  INI_PARMS: opening model parameter file "data"
(PID.TID 0000.0001)  OPEN_COPY_DATA_FILE: opening file data
(PID.TID 0000.0001) // =======================================================
(PID.TID 0000.0001) // Parameter file "data"
(PID.TID 0000.0001) // =======================================================
(PID.TID 0000.0001) ># ====================
(PID.TID 0000.0001) ># | Model parameters |
(PID.TID 0000.0001) ># ====================
(PID.TID 0000.0001) >#
(PID.TID 0000.0001) ># Continuous equation parameters
(PID.TID 0000.0001) > &PARM01
(PID.TID 0000.0001) > tRef               = 3*23.,3*22.,21.,2*20.,19.,2*18.,17.,2*16.,15.,14.,13.,
(PID.TID 0000.0001) >                      12.,11.,2*9.,8.,7.,2*6.,2*5.,3*4.,3*3.,4*2.,12*1.,
(PID.TID 0000.0001) > sRef               = 50*34.5,
(PID.TID 0000.0001) > viscAr= 5.6614e-04,
(PID.TID 0000.0001) > no_slip_sides = .TRUE.,
(PID.TID 0000.0001) > no_slip_bottom = .TRUE.,
(PID.TID 0000.0001) > diffKrT=5.44e-7,
(PID.TID 0000.0001) > diffKrS=5.44e-7,
(PID.TID 0000.0001) > rhonil=1027.5,
(PID.TID 0000.0001) > rhoConstFresh=999.8,
(PID.TID 0000.0001) > eosType='JMD95Z',
(PID.TID 0000.0001) > hFacMin=0.3,
(PID.TID 0000.0001) > hFacInf=0.1,
(PID.TID 0000.0001) > hFacSup=5.,
(PID.TID 0000.0001) > implicitDiffusion=.TRUE.,
(PID.TID 0000.0001) > implicitViscosity=.TRUE.,
(PID.TID 0000.0001) > viscC4Leith=2.15,
(PID.TID 0000.0001) > viscC4Leithd=2.15,
(PID.TID 0000.0001) > viscA4GridMax=0.8,
(PID.TID 0000.0001) > useAreaViscLength=.TRUE.,
(PID.TID 0000.0001) > highOrderVorticity  = .TRUE.,
(PID.TID 0000.0001) > bottomDragQuadratic = 0.0021,
(PID.TID 0000.0001) > tempAdvScheme=7,
(PID.TID 0000.0001) > saltAdvScheme=7,
(PID.TID 0000.0001) > StaggerTimeStep=.TRUE.,
(PID.TID 0000.0001) > multiDimAdvection=.TRUE.,
(PID.TID 0000.0001) > vectorInvariantMomentum=.TRUE.,
(PID.TID 0000.0001) > implicitFreeSurface=.TRUE.,
(PID.TID 0000.0001) > exactConserv=.TRUE.,
(PID.TID 0000.0001) ># debuglevel=-1,
(PID.TID 0000.0001) > convertFW2Salt=-1.,
(PID.TID 0000.0001) > useRealFreshWaterFlux=.TRUE.,
(PID.TID 0000.0001) ># change useSingleCPUio to .FALSE. for asyncio
(PID.TID 0000.0001) > useSingleCPUio=.TRUE.,
(PID.TID 0000.0001) > useSingleCpuInput=.TRUE.,
(PID.TID 0000.0001) > globalFiles=.TRUE.,
(PID.TID 0000.0001) > readBinaryPrec=32,
(PID.TID 0000.0001) > writeBinaryPrec=32,
(PID.TID 0000.0001) > temp_EvPrRn=0.,
(PID.TID 0000.0001) > implicSurfPress = 0.6,
(PID.TID 0000.0001) > implicDiv2DFlow = 0.6,
(PID.TID 0000.0001) > /
(PID.TID 0000.0001) >
(PID.TID 0000.0001) ># Elliptic solver parameters
(PID.TID 0000.0001) > &PARM02
(PID.TID 0000.0001) > cg2dMaxIters = 100,
(PID.TID 0000.0001) > cg2dTargetResidual = 1.E-5,
(PID.TID 0000.0001) > &
(PID.TID 0000.0001) >
(PID.TID 0000.0001) ># Time stepping parameters
(PID.TID 0000.0001) > &PARM03
(PID.TID 0000.0001) > nIter0=1,
(PID.TID 0000.0001) >  nTimeSteps       = 96,
(PID.TID 0000.0001) > deltaT=900.,
(PID.TID 0000.0001) > abEps = 0.1,
(PID.TID 0000.0001) > forcing_In_AB=.FALSE.,
(PID.TID 0000.0001) > momDissip_In_AB=.FALSE.,
(PID.TID 0000.0001) >  chkptFreq        = 86400.0,
(PID.TID 0000.0001) > dumpfreq = 3600.,
(PID.TID 0000.0001) > dumpInitAndLast=.FALSE.,
(PID.TID 0000.0001) > monitorFreq = 7200.0,
(PID.TID 0000.0001) > &
(PID.TID 0000.0001) >
(PID.TID 0000.0001) ># Gridding parameters
(PID.TID 0000.0001) > &PARM04
(PID.TID 0000.0001) > usingCurvilinearGrid=.TRUE.,
(PID.TID 0000.0001) > delR =
(PID.TID 0000.0001) >     10.00, 10.00, 10.00, 10.00, 10.00, 10.00, 10.00, 10.01,
(PID.TID 0000.0001) >     10.03, 10.11, 10.32, 10.80, 11.76, 13.42, 16.04, 19.82, 24.85,
(PID.TID 0000.0001) >     31.10, 38.42, 46.50, 55.00, 63.50, 71.58, 78.90, 85.15, 90.18,
(PID.TID 0000.0001) >     93.96, 96.58, 98.25, 99.25,100.01,101.33,104.56,111.33,122.83,
(PID.TID 0000.0001) >     139.09,158.94,180.83,203.55,226.50,249.50,272.50,295.50,318.50,
(PID.TID 0000.0001) >     341.50,364.50,387.50,410.50,433.50,456.50,
(PID.TID 0000.0001) > &
(PID.TID 0000.0001) >
(PID.TID 0000.0001) ># Input datasets
(PID.TID 0000.0001) > &PARM05
(PID.TID 0000.0001) > bathyFile      ='bathy.bin',
(PID.TID 0000.0001) > &
(PID.TID 0000.0001) 
(PID.TID 0000.0001)  INI_PARMS ; starts to read PARM01
(PID.TID 0000.0001)  INI_PARMS ; read PARM01 : OK
(PID.TID 0000.0001)  INI_PARMS ; starts to read PARM02
(PID.TID 0000.0001)  INI_PARMS ; read PARM02 : OK
(PID.TID 0000.0001)  INI_PARMS ; starts to read PARM03
(PID.TID 0000.0001)  INI_PARMS ; read PARM03 : OK
(PID.TID 0000.0001)  INI_PARMS ; starts to read PARM04
(PID.TID 0000.0001)  INI_PARMS ; read PARM04 : OK
(PID.TID 0000.0001)  INI_PARMS ; starts to read PARM05
(PID.TID 0000.0001)  INI_PARMS ; read PARM05 : OK
(PID.TID 0000.0001)  INI_PARMS: finished reading file "data"
(PID.TID 0000.0001)  PACKAGES_BOOT: opening data.pkg
(PID.TID 0000.0001)  OPEN_COPY_DATA_FILE: opening file data.pkg
(PID.TID 0000.0001) // =======================================================
(PID.TID 0000.0001) // Parameter file "data.pkg"
(PID.TID 0000.0001) // =======================================================
(PID.TID 0000.0001) ># Packages
(PID.TID 0000.0001) > &PACKAGES
(PID.TID 0000.0001) > useKPP         = .TRUE.,
(PID.TID 0000.0001) > useFRAZIL      = .TRUE.,
(PID.TID 0000.0001) > /
(PID.TID 0000.0001) 
(PID.TID 0000.0001)  PACKAGES_BOOT: finished reading data.pkg
(PID.TID 0000.0001)  PACKAGES_BOOT: On/Off package Summary
 --------  pkgs with a standard "usePKG" On/Off switch in "data.pkg":  --------
 pkg/kpp                  compiled   and   used ( useKPP                   = T )
 pkg/frazil               compiled   and   used ( useFRAZIL                = T )
 -------- pkgs without standard "usePKG" On/Off switch in "data.pkg":  --------
 pkg/generic_advdiff      compiled   and   used ( useGAD                   = T )
 pkg/mom_common           compiled   and   used ( momStepping              = T )
 pkg/mom_vecinv           compiled   and   used ( +vectorInvariantMomentum = T )
 pkg/mom_fluxform         compiled but not used ( & not vectorInvariantMom = F )
 pkg/monitor              compiled   and   used ( monitorFreq > 0.         = T )
 pkg/debug                compiled but not used ( debugMode                = F )
 pkg/exch2                compiled   and   used
 pkg/rw                   compiled   and   used
 pkg/mdsio                compiled   and   used
(PID.TID 0000.0001)  PACKAGES_BOOT: End of package Summary
(PID.TID 0000.0001) 
(PID.TID 0000.0001)  KPP_INIT: opening data.kpp
(PID.TID 0000.0001)  OPEN_COPY_DATA_FILE: opening file data.kpp
(PID.TID 0000.0001) // =======================================================
(PID.TID 0000.0001) // Parameter file "data.kpp"
(PID.TID 0000.0001) // =======================================================
(PID.TID 0000.0001) ># KPP parameters
(PID.TID 0000.0001) > &KPP_PARM01
(PID.TID 0000.0001) > KPPmixingMaps   = .FALSE.,
(PID.TID 0000.0001) > KPPwriteState   = .FALSE.,
(PID.TID 0000.0001) > kpp_dumpFreq    = 0.,
(PID.TID 0000.0001) > kpp_tavefreq    = 0.,
(PID.TID 0000.0001) > Ricr            = 0.3559,
(PID.TID 0000.0001) > Riinfty         = 0.6998,
(PID.TID 0000.0001) > &
(PID.TID 0000.0001) 
(PID.TID 0000.0001)  KPP_INIT: finished reading data.kpp
(PID.TID 0000.0001) SET_PARMS: done
(PID.TID 0000.0001) Enter INI_VERTICAL_GRID: setInterFDr=    T ; setCenterDr=    F
(PID.TID 0000.0001) tile:   4 ; Read from file tile001.mitgrid
(PID.TID 0000.0001)   => xC yC dxF dyF rA xG yG dxV dyU rAz dxC dyC rAw rAs dxG dyG
(PID.TID 0000.0001) %MON XC_max                       =   1.7997758946678E+02
(PID.TID 0000.0001) %MON XC_min                       =  -1.7998895680928E+02
(PID.TID 0000.0001) %MON XC_mean                      =  -6.8997670631350E+00
(PID.TID 0000.0001) %MON XC_sd                        =   1.0548127462941E+02
(PID.TID 0000.0001) %MON XG_max                       =   1.8000000000000E+02
(PID.TID 0000.0001) %MON XG_min                       =  -1.7999919444240E+02
(PID.TID 0000.0001) %MON XG_mean                      =  -6.3521159278861E+00
(PID.TID 0000.0001) %MON XG_sd                        =   1.0549598176576E+02
(PID.TID 0000.0001) %MON DXC_max                      =   1.1117680031365E+05
(PID.TID 0000.0001) %MON DXC_min                      =   1.3362789164732E+04
(PID.TID 0000.0001) %MON DXC_mean                     =   7.1345115143606E+04
(PID.TID 0000.0001) %MON DXC_sd                       =   2.6107013089865E+04
(PID.TID 0000.0001) %MON DXF_max                      =   1.1117680031365E+05
(PID.TID 0000.0001) %MON DXF_min                      =   1.3491575949394E+04
(PID.TID 0000.0001) %MON DXF_mean                     =   7.1334806791260E+04
(PID.TID 0000.0001) %MON DXF_sd                       =   2.6121349328995E+04
(PID.TID 0000.0001) %MON DXG_max                      =   1.1117747335204E+05
(PID.TID 0000.0001) %MON DXG_min                      =   1.0930409249570E+04
(PID.TID 0000.0001) %MON DXG_mean                     =   7.1313583950284E+04
(PID.TID 0000.0001) %MON DXG_sd                       =   2.6131714747840E+04
(PID.TID 0000.0001) %MON DXV_max                      =   1.1117747335204E+05
(PID.TID 0000.0001) %MON DXV_min                      =   9.4742518926426E+03
(PID.TID 0000.0001) %MON DXV_mean                     =   7.1323777998314E+04
(PID.TID 0000.0001) %MON DXV_sd                       =   2.6117603792432E+04
(PID.TID 0000.0001) %MON YC_max                       =   8.9739397429324E+01
(PID.TID 0000.0001) %MON YC_min                       =  -8.1637173529390E+01
(PID.TID 0000.0001) %MON YC_mean                      =  -5.9338515025079E-01
(PID.TID 0000.0001) %MON YC_sd                        =   5.1058908630085E+01
(PID.TID 0000.0001) %MON YG_max                       =   9.0000000000000E+01
(PID.TID 0000.0001) %MON YG_min                       =  -8.1805478609906E+01
(PID.TID 0000.0001) %MON YG_mean                      =  -5.7357831765458E-01
(PID.TID 0000.0001) %MON YG_sd                        =   5.1060174609345E+01
(PID.TID 0000.0001) %MON DYC_max                      =   1.1117680031365E+05
(PID.TID 0000.0001) %MON DYC_min                      =   1.3362789164732E+04
(PID.TID 0000.0001) %MON DYC_mean                     =   7.0982792089666E+04
(PID.TID 0000.0001) %MON DYC_sd                       =   2.6607387075348E+04
(PID.TID 0000.0001) %MON DYF_max                      =   1.1117680031365E+05
(PID.TID 0000.0001) %MON DYF_min                      =   1.3491575949394E+04
(PID.TID 0000.0001) %MON DYF_mean                     =   7.1000127494934E+04
(PID.TID 0000.0001) %MON DYF_sd                       =   2.6603606017547E+04
(PID.TID 0000.0001) %MON DYG_max                      =   1.1117747335204E+05
(PID.TID 0000.0001) %MON DYG_min                      =   1.0930409249570E+04
(PID.TID 0000.0001) %MON DYG_mean                     =   7.1022116512585E+04
(PID.TID 0000.0001) %MON DYG_sd                       =   2.6571715830406E+04
(PID.TID 0000.0001) %MON DYU_max                      =   1.1117747335204E+05
(PID.TID 0000.0001) %MON DYU_min                      =   9.4742518926426E+03
(PID.TID 0000.0001) %MON DYU_mean                     =   7.1004694583927E+04
(PID.TID 0000.0001) %MON DYU_sd                       =   2.6575655787476E+04
(PID.TID 0000.0001) %MON RA_max                       =   1.1896090857160E+10
(PID.TID 0000.0001) %MON RA_min                       =   2.1263387742345E+08
(PID.TID 0000.0001) %MON RA_mean                      =   5.6344293572480E+09
(PID.TID 0000.0001) %MON RA_sd                        =   3.5929461176606E+09
(PID.TID 0000.0001) %MON RAW_max                      =   1.1896090856781E+10
(PID.TID 0000.0001) %MON RAW_min                      =   1.7369571508711E+08
(PID.TID 0000.0001) %MON RAW_mean                     =   5.6355850434318E+09
(PID.TID 0000.0001) %MON RAW_sd                       =   3.5915487677190E+09
(PID.TID 0000.0001) %MON RAS_max                      =   1.1896090856781E+10
(PID.TID 0000.0001) %MON RAS_min                      =   1.7369571508711E+08
(PID.TID 0000.0001) %MON RAS_mean                     =   5.6320332286162E+09
(PID.TID 0000.0001) %MON RAS_sd                       =   3.5937184228135E+09
(PID.TID 0000.0001) %MON RAZ_max                      =   1.1891903479271E+10
(PID.TID 0000.0001) %MON RAZ_min                      =   1.0413402423292E+08
(PID.TID 0000.0001) %MON RAZ_mean                     =   5.6331824674695E+09
(PID.TID 0000.0001) %MON RAZ_sd                       =   3.5923307220197E+09
(PID.TID 0000.0001) %MON AngleCS_max                  =   1.0000000000000E+00
(PID.TID 0000.0001) %MON AngleCS_min                  =  -9.9996641938864E-01
(PID.TID 0000.0001) %MON AngleCS_mean                 =   4.0572930529500E-01
(PID.TID 0000.0001) %MON AngleCS_sd                   =   5.3874397836718E-01
(PID.TID 0000.0001) %MON AngleSN_max                  =   9.9996641938864E-01
(PID.TID 0000.0001) %MON AngleSN_min                  =  -1.0000000000000E+00
(PID.TID 0000.0001) %MON AngleSN_mean                 =  -4.9986154624599E-01
(PID.TID 0000.0001) %MON AngleSN_sd                   =   5.4339404779819E-01
(PID.TID 0000.0001)  MDS_READ_FIELD: opening global file: bathy.bin
(PID.TID 0000.0001) // =======================================================
(PID.TID 0000.0001) // Field Model R_low (ini_masks_etc)
(PID.TID 0000.0001) // CMIN =         -4.957150000000000E+03
(PID.TID 0000.0001) // CMAX =         -1.998999977111816E+01
(PID.TID 0000.0001) // CINT =          1.828577777862549E+02
(PID.TID 0000.0001) // SYMBOLS (CMIN->CMAX): -abcdefghijklmnopqrstuvwxyz+
(PID.TID 0000.0001) //                  0.0: .
(PID.TID 0000.0001) // RANGE I (Lo:Hi:Step):(    -7:    38:     1)
(PID.TID 0000.0001) // RANGE J (Lo:Hi:Step):(    38:    -7:    -1)
(PID.TID 0000.0001) // RANGE K (Lo:Hi:Step):(   1:   1:   1)
(PID.TID 0000.0001) // =======================================================
(PID.TID 0000.0001) K =   1
(PID.TID 0000.0001) //                I=2       I=12      I=22      I=32
(PID.TID 0000.0001) // |--J--|765432101|345678901|345678901|345678901|345678
(PID.TID 0000.0001) //     38 eeedddcccbbbbbbbbaaaaaaaa--aaaaa---aaaaaabbcbb
(PID.TID 0000.0001) //     37 feeddddcccbbbbbbbbaaaaaaaaaaaaaaa-aaaaaaabcccb
(PID.TID 0000.0001) //     36 gfeeddddcccccbbbbbaaaaaaaaaaaaaaaaaabccbcdddcc
(PID.TID 0000.0001) //     35 gfeeedddccccccbbbbaaaaaaaaaaaaaaaaabdeffeefedd
(PID.TID 0000.0001) //     34 ffeeeedddcccccbbbbbaaaaaaaaaaaaaaabcefhkkhgggg
(PID.TID 0000.0001) //     33 gffeeeddddcccccbbbbbaaaaaaaaaaaaabcdfgilmliijk
(PID.TID 0000.0001) //     32 gffffeeddddcccccbbbbbbbbbbbbbaaaabdgijklnmlklp
(PID.TID 0000.0001) //     31 ggggffeeddddcccccbbbbbbbbbbbbbaabehlnn........
(PID.TID 0000.0001) //     30 hggggfeeedddddcccccccccccbbbbbbcgknpr.........
(PID.TID 0000.0001) //     29 ihhggffeeeeeddddcccccccccccccdfimpr...........
(PID.TID 0000.0001) //     28 jjihggfffffeeeddddddddddcccdfilnqu............
(PID.TID 0000.0001) //     27 llkjihggggggffeeeeeeeedddddfjnqyy.............
(PID.TID 0000.0001) //     26 onlljihhgggggggffefffeeeeeginsyy..............
(PID.TID 0000.0001) //     25 rqonlkjiihhhghhgfffggfffghjouz................
(PID.TID 0000.0001) //     24 utrpomlkjiihhhhhggghhghijl+...................
(PID.TID 0000.0001) //     23 wvusqpnmlkkjjjjiiiiiijlnqz....................
(PID.TID 0000.0001) //     22 xxwvtsrponmllmmlllkkknsxz.....................
(PID.TID 0000.0001) //     21 yxxxwwvusqpqrsrqonmmny+z......................
(PID.TID 0000.0001) //     20 yyyyyyyxxwvwwwwvusrwx.........................
(PID.TID 0000.0001) //     19 yyyyyyyyyyyxxxxxxxyyx.........................
(PID.TID 0000.0001) //     18 yyyyyyyyyyxxxxxxyyyyy.........................
(PID.TID 0000.0001) //     17 yyyyyyyyyxxxwwxxyyy...........................
(PID.TID 0000.0001) //     16 yyyyyyyyxxwwwwxyyyz...........................
(PID.TID 0000.0001) //     15 yyyyyyyxwwwvwxyyz.............................
(PID.TID 0000.0001) //     14 yyyyyxxwwvvvxyz...............................
(PID.TID 0000.0001) //     13 zyyyyxwwvvvwy.................................
(PID.TID 0000.0001) //     12 zzyyxxwvuuvx..................................
(PID.TID 0000.0001) //     11 ++zyyxwvuvw...................................
(PID.TID 0000.0001) //     10 ..............................................
(PID.TID 0000.0001) //      9 ..............................................
(PID.TID 0000.0001) //      8 ..............................................
(PID.TID 0000.0001) //      7 ..............................................
(PID.TID 0000.0001) //      6 ..............................................
(PID.TID 0000.0001) //      5 ..............................................
(PID.TID 0000.0001) //      4 ..............................................
(PID.TID 0000.0001) //      3 ..............................................
(PID.TID 0000.0001) //      2 ..............................................
(PID.TID 0000.0001) //      1 ..............................................
(PID.TID 0000.0001) //      0 ..............................................
(PID.TID 0000.0001) //     -1 ..............................................
(PID.TID 0000.0001) //     -2 ..............................................
(PID.TID 0000.0001) //     -3 ..............................................
(PID.TID 0000.0001) //     -4 ..............................................
(PID.TID 0000.0001) //     -5 ..............................................
(PID.TID 0000.0001) //     -6 ..............................................
(PID.TID 0000.0001) //     -7 ..............................................
(PID.TID 0000.0001) // =======================================================
(PID.TID 0000.0001) // END OF FIELD                                          =
(PID.TID 0000.0001) // =======================================================
(PID.TID 0000.0001) 
(PID.TID 0000.0001) // =======================================================
(PID.TID 0000.0001) // Field Model Ro_surf (ini_masks_etc)
(PID.TID 0000.0001) // CMIN =          1.000000000000000E+32
(PID.TID 0000.0001) // CMAX =         -1.000000000000000E+32
(PID.TID 0000.0001) // CINT =          0.000000000000000E+00
(PID.TID 0000.0001) // SYMBOLS (CMIN->CMAX): -abcdefghijklmnopqrstuvwxyz+
(PID.TID 0000.0001) //                  0.0: .
(PID.TID 0000.0001) // RANGE I (Lo:Hi:Step):(    -7:    38:     1)
(PID.TID 0000.0001) // RANGE J (Lo:Hi:Step):(    38:    -7:    -1)
(PID.TID 0000.0001) // RANGE K (Lo:Hi:Step):(   1:   1:   1)
(PID.TID 0000.0001) // =======================================================
(PID.TID 0000.0001) // =======================================================
(PID.TID 0000.0001) // END OF FIELD                                          =
(PID.TID 0000.0001) // =======================================================
(PID.TID 0000.0001) 
(PID.TID 0000.0001) // =======================================================
(PID.TID 0000.0001) // Field hFacC at iteration          0
(PID.TID 0000.0001) // CMIN =          1.000000000000000E+00
(PID.TID 0000.0001) // CMAX =          1.000000000000000E+00
(PID.TID 0000.0001) // CINT =          0.000000000000000E+00
(PID.TID 0000.0001) // SYMBOLS (CMIN->CMAX): -abcdefghijklmnopqrstuvwxyz+
(PID.TID 0000.0001) //                  0.0: .
(PID.TID 0000.0001) // RANGE I (Lo:Hi:Step):(    -7:    38:     1)
(PID.TID 0000.0001) // RANGE J (Lo:Hi:Step):(    38:    -7:    -1)
(PID.TID 0000.0001) // RANGE K (Lo:Hi:Step):(   1:   1:   1)
(PID.TID 0000.0001) // =======================================================
(PID.TID 0000.0001) // =======================================================
(PID.TID 0000.0001) // END OF FIELD                                          =
(PID.TID 0000.0001) // =======================================================
(PID.TID 0000.0001) 
(PID.TID 0000.0001) // =======================================================
(PID.TID 0000.0001) // Field hFacW at iteration          0
(PID.TID 0000.0001) // CMIN =          1.000000000000000E+00
(PID.TID 0000.0001) // CMAX =          1.000000000000000E+00
(PID.TID 0000.0001) // CINT =          0.000000000000000E+00
(PID.TID 0000.0001) // SYMBOLS (CMIN->CMAX): -abcdefghijklmnopqrstuvwxyz+
(PID.TID 0000.0001) //                  0.0: .
(PID.TID 0000.0001) // RANGE I (Lo:Hi:Step):(    -7:    38:     1)
(PID.TID 0000.0001) // RANGE J (Lo:Hi:Step):(    38:    -7:    -1)
(PID.TID 0000.0001) // RANGE K (Lo:Hi:Step):(   1:   1:   1)
(PID.TID 0000.0001) // =======================================================
(PID.TID 0000.0001) // =======================================================
(PID.TID 0000.0001) // END OF FIELD                                          =
(PID.TID 0000.0001) // =======================================================
(PID.TID 0000.0001) 
(PID.TID 0000.0001) // =======================================================
(PID.TID 0000.0001) // Field hFacS at iteration          0
(PID.TID 0000.0001) // CMIN =          1.000000000000000E+00
(PID.TID 0000.0001) // CMAX =          1.000000000000000E+00
(PID.TID 0000.0001) // CINT =          0.000000000000000E+00
(PID.TID 0000.0001) // SYMBOLS (CMIN->CMAX): -abcdefghijklmnopqrstuvwxyz+
(PID.TID 0000.0001) //                  0.0: .
(PID.TID 0000.0001) // RANGE I (Lo:Hi:Step):(    -7:    38:     1)
(PID.TID 0000.0001) // RANGE J (Lo:Hi:Step):(    38:    -7:    -1)
(PID.TID 0000.0001) // RANGE K (Lo:Hi:Step):(   1:   1:   1)
(PID.TID 0000.0001) // =======================================================
(PID.TID 0000.0001) // =======================================================
(PID.TID 0000.0001) // END OF FIELD                                          =
(PID.TID 0000.0001) // =======================================================
(PID.TID 0000.0001) 
(PID.TID 0000.0001) GAD_INIT_FIXED: GAD_OlMinSize=  4  0  2
(PID.TID 0000.0001) 
(PID.TID 0000.0001) // ===================================
(PID.TID 0000.0001) // GAD parameters :
(PID.TID 0000.0001) // ===================================
(PID.TID 0000.0001) tempAdvScheme =   /* Temp. Horiz.Advection scheme selector */
(PID.TID 0000.0001)                       7
(PID.TID 0000.0001)     ;
(PID.TID 0000.0001) tempVertAdvScheme =   /* Temp. Vert. Advection scheme selector */
(PID.TID 0000.0001)                       7
(PID.TID 0000.0001)     ;
(PID.TID 0000.0001) tempMultiDimAdvec =   /* use Muti-Dim Advec method for Temp */
(PID.TID 0000.0001)                   T
(PID.TID 0000.0001)     ;
(PID.TID 0000.0001) tempSOM_Advection = /* use 2nd Order Moment Advection for Temp */
(PID.TID 0000.0001)                   F
(PID.TID 0000.0001)     ;
(PID.TID 0000.0001) AdamsBashforthGt = /* apply Adams-Bashforth extrapolation on Gt */
(PID.TID 0000.0001)                   F
(PID.TID 0000.0001)     ;
(PID.TID 0000.0001) AdamsBashforth_T = /* apply Adams-Bashforth extrapolation on Temp */
(PID.TID 0000.0001)                   F
(PID.TID 0000.0001)     ;
(PID.TID 0000.0001) saltAdvScheme =   /* Salt. Horiz.advection scheme selector */
(PID.TID 0000.0001)                       7
(PID.TID 0000.0001)     ;
(PID.TID 0000.0001) saltVertAdvScheme =   /* Salt. Vert. Advection scheme selector */
(PID.TID 0000.0001)                       7
(PID.TID 0000.0001)     ;
(PID.TID 0000.0001) saltMultiDimAdvec =   /* use Muti-Dim Advec method for Salt */
(PID.TID 0000.0001)                   T
(PID.TID 0000.0001)     ;
(PID.TID 0000.0001) saltSOM_Advection = /* use 2nd Order Moment Advection for Salt */
(PID.TID 0000.0001)                   F
(PID.TID 0000.0001)     ;
(PID.TID 0000.0001) AdamsBashforthGs = /* apply Adams-Bashforth extrapolation on Gs */
(PID.TID 0000.0001)                   F
(PID.TID 0000.0001)     ;
(PID.TID 0000.0001) AdamsBashforth_S = /* apply Adams-Bashforth extrapolation on Salt */
(PID.TID 0000.0001)                   F
(PID.TID 0000.0001)     ;
(PID.TID 0000.0001) // ===================================
(PID.TID 0000.0001) INI_GLOBAL_DOMAIN: Found   0 CS-corner Pts in the domain
(PID.TID 0000.0001) %MON fCori_max                    =   1.4584096177006E-04
(PID.TID 0000.0001) %MON fCori_min                    =  -1.4429171327635E-04
(PID.TID 0000.0001) %MON fCori_mean                   =  -1.9531894197173E-06
(PID.TID 0000.0001) %MON fCori_sd                     =   1.0434730642309E-04
(PID.TID 0000.0001) %MON fCoriG_max                   =   1.4584247033981E-04
(PID.TID 0000.0001) %MON fCoriG_min                   =  -1.4435339896041E-04
(PID.TID 0000.0001) %MON fCoriG_mean                  =  -1.9303770726087E-06
(PID.TID 0000.0001) %MON fCoriG_sd                    =   1.0435958182593E-04
(PID.TID 0000.0001) %MON fCoriCos_max                 =   1.4584158744890E-04
(PID.TID 0000.0001) %MON fCoriCos_min                 =   6.6334365221135E-07
(PID.TID 0000.0001) %MON fCoriCos_mean                =   9.3876998486639E-05
(PID.TID 0000.0001) %MON fCoriCos_sd                  =   3.9559575367967E-05
(PID.TID 0000.0001) INI_CG2D: CG2D normalisation factor =  1.9867335911142027E-04
(PID.TID 0000.0001) 
(PID.TID 0000.0001) // =======================================================
(PID.TID 0000.0001) // Model configuration
(PID.TID 0000.0001) // =======================================================
(PID.TID 0000.0001) //
(PID.TID 0000.0001) // "Physical" paramters ( PARM01 in namelist )
(PID.TID 0000.0001) //
(PID.TID 0000.0001) buoyancyRelation = /* Type of relation to get Buoyancy */
(PID.TID 0000.0001)               'OCEANIC'
(PID.TID 0000.0001)     ;
(PID.TID 0000.0001) fluidIsAir   =  /* fluid major constituent is Air */
(PID.TID 0000.0001)                   F
(PID.TID 0000.0001)     ;
(PID.TID 0000.0001) fluidIsWater =  /* fluid major constituent is Water */
(PID.TID 0000.0001)                   T
(PID.TID 0000.0001)     ;
(PID.TID 0000.0001) usingPCoords =  /* use p (or p*) vertical coordinate */
(PID.TID 0000.0001)                   F
(PID.TID 0000.0001)     ;
(PID.TID 0000.0001) usingZCoords =  /* use z (or z*) vertical coordinate */
(PID.TID 0000.0001)                   T
(PID.TID 0000.0001)     ;
(PID.TID 0000.0001) tRef =   /* Reference temperature profile ( oC or K ) */
(PID.TID 0000.0001)     3 @  2.300000000000000E+01,             /* K =  1:  3 */
(PID.TID 0000.0001)     3 @  2.200000000000000E+01,             /* K =  4:  6 */
(PID.TID 0000.0001)                 2.100000000000000E+01,      /* K =  7 */
(PID.TID 0000.0001)     2 @  2.000000000000000E+01,             /* K =  8:  9 */
(PID.TID 0000.0001)                 1.900000000000000E+01,      /* K = 10 */
(PID.TID 0000.0001)     2 @  1.800000000000000E+01,             /* K = 11: 12 */
(PID.TID 0000.0001)                 1.700000000000000E+01,      /* K = 13 */
(PID.TID 0000.0001)     2 @  1.600000000000000E+01,             /* K = 14: 15 */
(PID.TID 0000.0001)                 1.500000000000000E+01,      /* K = 16 */
(PID.TID 0000.0001)                 1.400000000000000E+01,      /* K = 17 */
(PID.TID 0000.0001)                 1.300000000000000E+01,      /* K = 18 */
(PID.TID 0000.0001)                 1.200000000000000E+01,      /* K = 19 */
(PID.TID 0000.0001)                 1.100000000000000E+01,      /* K = 20 */
(PID.TID 0000.0001)     2 @  9.000000000000000E+00,             /* K = 21: 22 */
(PID.TID 0000.0001)                 8.000000000000000E+00,      /* K = 23 */
(PID.TID 0000.0001)                 7.000000000000000E+00,      /* K = 24 */
(PID.TID 0000.0001)     2 @  6.000000000000000E+00,             /* K = 25: 26 */
(PID.TID 0000.0001)     2 @  5.000000000000000E+00,             /* K = 27: 28 */
(PID.TID 0000.0001)     3 @  4.000000000000000E+00,             /* K = 29: 31 */
(PID.TID 0000.0001)     3 @  3.000000000000000E+00,             /* K = 32: 34 */
(PID.TID 0000.0001)     4 @  2.000000000000000E+00,             /* K = 35: 38 */
(PID.TID 0000.0001)    12 @  1.000000000000000E+00              /* K = 39: 50 */
(PID.TID 0000.0001)     ;
(PID.TID 0000.0001) sRef =   /* Reference salinity profile ( psu ) */
(PID.TID 0000.0001)    50 @  3.450000000000000E+01              /* K =  1: 50 */
(PID.TID 0000.0001)     ;
(PID.TID 0000.0001) useStrainTensionVisc= /* Use StrainTension Form of Viscous Operator */
(PID.TID 0000.0001)                   F
(PID.TID 0000.0001)     ;
(PID.TID 0000.0001) useVariableVisc = /* Use variable horizontal viscosity */
(PID.TID 0000.0001)                   T
(PID.TID 0000.0001)     ;
(PID.TID 0000.0001) useHarmonicVisc = /* Use harmonic horizontal viscosity */
(PID.TID 0000.0001)                   F
(PID.TID 0000.0001)     ;
(PID.TID 0000.0001) useBiharmonicVisc= /* Use biharmonic horiz.  viscosity */
(PID.TID 0000.0001)                   T
(PID.TID 0000.0001)     ;
(PID.TID 0000.0001) useSmag3D = /* Use isotropic 3-D Smagorinsky viscosity */
(PID.TID 0000.0001)                   F
(PID.TID 0000.0001)     ;
(PID.TID 0000.0001) viscAh  =   /* Lateral harmonic viscosity ( m^2/s ) */
(PID.TID 0000.0001)                 0.000000000000000E+00
(PID.TID 0000.0001)     ;
(PID.TID 0000.0001) viscAhMax = /* Maximum lateral harmonic viscosity ( m^2/s ) */
(PID.TID 0000.0001)                 1.000000000000000E+21
(PID.TID 0000.0001)     ;
(PID.TID 0000.0001) viscAhGrid = /* Grid dependent lateral harmonic viscosity ( non-dim. ) */
(PID.TID 0000.0001)                 0.000000000000000E+00
(PID.TID 0000.0001)     ;
(PID.TID 0000.0001) useFullLeith = /* Use Full Form of Leith Viscosity on/off flag*/
(PID.TID 0000.0001)                   F
(PID.TID 0000.0001)     ;
(PID.TID 0000.0001) useAreaViscLength = /* Use area for visc length instead of geom. mean*/
(PID.TID 0000.0001)                   T
(PID.TID 0000.0001)     ;
(PID.TID 0000.0001) viscC2leith = /* Leith harmonic visc. factor (on grad(vort),non-dim.) */
(PID.TID 0000.0001)                 0.000000000000000E+00
(PID.TID 0000.0001)     ;
(PID.TID 0000.0001) viscC2leithD = /* Leith harmonic viscosity factor (on grad(div),non-dim.)*/
(PID.TID 0000.0001)                 0.000000000000000E+00
(PID.TID 0000.0001)     ;
(PID.TID 0000.0001) viscC2smag = /* Smagorinsky harmonic viscosity factor (non-dim.) */
(PID.TID 0000.0001)                 0.000000000000000E+00
(PID.TID 0000.0001)     ;
(PID.TID 0000.0001) viscA4  =   /* Lateral biharmonic viscosity ( m^4/s ) */
(PID.TID 0000.0001)                 0.000000000000000E+00
(PID.TID 0000.0001)     ;
(PID.TID 0000.0001) viscA4Max = /* Maximum biharmonic viscosity ( m^2/s ) */
(PID.TID 0000.0001)                 1.000000000000000E+21
(PID.TID 0000.0001)     ;
(PID.TID 0000.0001) viscA4Grid = /* Grid dependent biharmonic viscosity ( non-dim. ) */
(PID.TID 0000.0001)                 0.000000000000000E+00
(PID.TID 0000.0001)     ;
(PID.TID 0000.0001) viscC4leith = /* Leith biharm viscosity factor (on grad(vort), non-dim.)*/
(PID.TID 0000.0001)                 2.150000000000000E+00
(PID.TID 0000.0001)     ;
(PID.TID 0000.0001) viscC4leithD = /* Leith biharm viscosity factor (on grad(div), non-dim.) */
(PID.TID 0000.0001)                 2.150000000000000E+00
(PID.TID 0000.0001)     ;
(PID.TID 0000.0001) viscC4Smag = /* Smagorinsky biharm viscosity factor (non-dim) */
(PID.TID 0000.0001)                 0.000000000000000E+00
(PID.TID 0000.0001)     ;
(PID.TID 0000.0001) no_slip_sides =  /* Viscous BCs: No-slip sides */
(PID.TID 0000.0001)                   T
(PID.TID 0000.0001)     ;
(PID.TID 0000.0001) sideDragFactor = /* side-drag scaling factor (non-dim) */
(PID.TID 0000.0001)                 2.000000000000000E+00
(PID.TID 0000.0001)     ;
(PID.TID 0000.0001) viscArNr = /* vertical profile of vertical viscosity ( m^2/s )*/
(PID.TID 0000.0001)    50 @  5.661400000000000E-04              /* K =  1: 50 */
(PID.TID 0000.0001)     ;
(PID.TID 0000.0001) no_slip_bottom =  /* Viscous BCs: No-slip bottom */
(PID.TID 0000.0001)                   T
(PID.TID 0000.0001)     ;
(PID.TID 0000.0001) bottomVisc_pCell = /* Partial-cell in bottom Visc. BC */
(PID.TID 0000.0001)                   F
(PID.TID 0000.0001)     ;
(PID.TID 0000.0001) bottomDragLinear = /* linear bottom-drag coefficient ( m/s ) */
(PID.TID 0000.0001)                 0.000000000000000E+00
(PID.TID 0000.0001)     ;
(PID.TID 0000.0001) bottomDragQuadratic = /* quadratic bottom-drag coefficient (-) */
(PID.TID 0000.0001)                 2.100000000000000E-03
(PID.TID 0000.0001)     ;
(PID.TID 0000.0001) selectBotDragQuadr = /* select quadratic bottom drag options */
(PID.TID 0000.0001)                       0
(PID.TID 0000.0001)     ;
(PID.TID 0000.0001) diffKhT =   /* Laplacian diffusion of heat laterally ( m^2/s ) */
(PID.TID 0000.0001)                 0.000000000000000E+00
(PID.TID 0000.0001)     ;
(PID.TID 0000.0001) diffK4T =   /* Biharmonic diffusion of heat laterally ( m^4/s ) */
(PID.TID 0000.0001)                 0.000000000000000E+00
(PID.TID 0000.0001)     ;
(PID.TID 0000.0001) diffKhS =   /* Laplacian diffusion of salt laterally ( m^2/s ) */
(PID.TID 0000.0001)                 0.000000000000000E+00
(PID.TID 0000.0001)     ;
(PID.TID 0000.0001) diffK4S =   /* Biharmonic diffusion of salt laterally ( m^4/s ) */
(PID.TID 0000.0001)                 0.000000000000000E+00
(PID.TID 0000.0001)     ;
(PID.TID 0000.0001) diffKrNrT = /* vertical profile of vertical diffusion of Temp ( m^2/s )*/
(PID.TID 0000.0001)    50 @  5.440000000000000E-07              /* K =  1: 50 */
(PID.TID 0000.0001)     ;
(PID.TID 0000.0001) diffKrNrS = /* vertical profile of vertical diffusion of Salt ( m^2/s )*/
(PID.TID 0000.0001)    50 @  5.440000000000000E-07              /* K =  1: 50 */
(PID.TID 0000.0001)     ;
(PID.TID 0000.0001) diffKrBL79surf = /* Surface diffusion for Bryan and Lewis 79 ( m^2/s ) */
(PID.TID 0000.0001)                 0.000000000000000E+00
(PID.TID 0000.0001)     ;
(PID.TID 0000.0001) diffKrBL79deep = /* Deep diffusion for Bryan and Lewis 1979 ( m^2/s ) */
(PID.TID 0000.0001)                 0.000000000000000E+00
(PID.TID 0000.0001)     ;
(PID.TID 0000.0001) diffKrBL79scl = /* Depth scale for Bryan and Lewis 1979 ( m ) */
(PID.TID 0000.0001)                 2.000000000000000E+02
(PID.TID 0000.0001)     ;
(PID.TID 0000.0001) diffKrBL79Ho = /* Turning depth for Bryan and Lewis 1979 ( m ) */
(PID.TID 0000.0001)                -2.000000000000000E+03
(PID.TID 0000.0001)     ;
(PID.TID 0000.0001) ivdc_kappa = /* Implicit Vertical Diffusivity for Convection ( m^2/s) */
(PID.TID 0000.0001)                 0.000000000000000E+00
(PID.TID 0000.0001)     ;
(PID.TID 0000.0001) hMixCriteria=  /* Criteria for mixed-layer diagnostic */
(PID.TID 0000.0001)                -8.000000000000000E-01
(PID.TID 0000.0001)     ;
(PID.TID 0000.0001) dRhoSmall =  /* Parameter for mixed-layer diagnostic */
(PID.TID 0000.0001)                 1.000000000000000E-06
(PID.TID 0000.0001)     ;
(PID.TID 0000.0001) hMixSmooth=  /* Smoothing parameter for mixed-layer diagnostic */
(PID.TID 0000.0001)                 0.000000000000000E+00
(PID.TID 0000.0001)     ;
(PID.TID 0000.0001) eosType =  /* Type of Equation of State */
(PID.TID 0000.0001)               'JMD95Z'
(PID.TID 0000.0001)     ;
(PID.TID 0000.0001) selectP_inEOS_Zc = /* select pressure to use in EOS (0,1,2,3) */
(PID.TID 0000.0001)                       0
(PID.TID 0000.0001)     0= -g*rhoConst*z ; 1= pRef (from tRef,sRef); 2= Hyd P ; 3= Hyd+NH P
(PID.TID 0000.0001)     ;
(PID.TID 0000.0001) HeatCapacity_Cp =  /* Specific heat capacity ( J/kg/K ) */
(PID.TID 0000.0001)                 3.994000000000000E+03
(PID.TID 0000.0001)     ;
(PID.TID 0000.0001) celsius2K = /* 0 degree Celsius converted to Kelvin ( K ) */
(PID.TID 0000.0001)                 2.731500000000000E+02
(PID.TID 0000.0001)     ;
(PID.TID 0000.0001) rhoConst  = /* Reference density (Boussinesq)  ( kg/m^3 ) */
(PID.TID 0000.0001)                 1.027500000000000E+03
(PID.TID 0000.0001)     ;
(PID.TID 0000.0001) rhoFacC = /* normalized Reference density @ cell-Center (-) */
(PID.TID 0000.0001)    50 @  1.000000000000000E+00              /* K =  1: 50 */
(PID.TID 0000.0001)     ;
(PID.TID 0000.0001) rhoFacF = /* normalized Reference density @ W-Interface (-) */
(PID.TID 0000.0001)    51 @  1.000000000000000E+00              /* K =  1: 51 */
(PID.TID 0000.0001)     ;
(PID.TID 0000.0001) rhoConstFresh = /* Fresh-water reference density ( kg/m^3 ) */
(PID.TID 0000.0001)                 9.998000000000000E+02
(PID.TID 0000.0001)     ;
(PID.TID 0000.0001) gravity =   /* Gravitational acceleration ( m/s^2 ) */
(PID.TID 0000.0001)                 9.810000000000000E+00
(PID.TID 0000.0001)     ;
(PID.TID 0000.0001) gBaro =   /* Barotropic gravity ( m/s^2 ) */
(PID.TID 0000.0001)                 9.810000000000000E+00
(PID.TID 0000.0001)     ;
(PID.TID 0000.0001) gravFacC = /* gravity factor (vs surf.) @ cell-Center (-) */
(PID.TID 0000.0001)    50 @  1.000000000000000E+00              /* K =  1: 50 */
(PID.TID 0000.0001)     ;
(PID.TID 0000.0001) gravFacF = /* gravity factor (vs surf.) @ W-Interface (-) */
(PID.TID 0000.0001)    51 @  1.000000000000000E+00              /* K =  1: 51 */
(PID.TID 0000.0001)     ;
(PID.TID 0000.0001) rotationPeriod =   /* Rotation Period ( s ) */
(PID.TID 0000.0001)                 8.616400000000000E+04
(PID.TID 0000.0001)     ;
(PID.TID 0000.0001) omega =   /* Angular velocity ( rad/s ) */
(PID.TID 0000.0001)                 7.292123516990375E-05
(PID.TID 0000.0001)     ;
(PID.TID 0000.0001) f0 =   /* Reference coriolis parameter ( 1/s ) */
(PID.TID 0000.0001)                 1.000000000000000E-04
(PID.TID 0000.0001)     ;
(PID.TID 0000.0001) beta =   /* Beta ( 1/(m.s) ) */
(PID.TID 0000.0001)                 9.999999999999999E-12
(PID.TID 0000.0001)     ;
(PID.TID 0000.0001) fPrime =   /* Second coriolis parameter ( 1/s ) */
(PID.TID 0000.0001)                 0.000000000000000E+00
(PID.TID 0000.0001)     ;
(PID.TID 0000.0001) rigidLid =   /* Rigid lid on/off flag */
(PID.TID 0000.0001)                   F
(PID.TID 0000.0001)     ;
(PID.TID 0000.0001) implicitFreeSurface =   /* Implicit free surface on/off flag */
(PID.TID 0000.0001)                   T
(PID.TID 0000.0001)     ;
(PID.TID 0000.0001) freeSurfFac =   /* Implicit free surface factor */
(PID.TID 0000.0001)                 1.000000000000000E+00
(PID.TID 0000.0001)     ;
(PID.TID 0000.0001) implicSurfPress =  /* Surface Pressure implicit factor (0-1)*/
(PID.TID 0000.0001)                 6.000000000000000E-01
(PID.TID 0000.0001)     ;
(PID.TID 0000.0001) implicDiv2DFlow =  /* Barot. Flow Div. implicit factor (0-1)*/
(PID.TID 0000.0001)                 6.000000000000000E-01
(PID.TID 0000.0001)     ;
(PID.TID 0000.0001) uniformLin_PhiSurf = /* use uniform Bo_surf on/off flag*/
(PID.TID 0000.0001)                   T
(PID.TID 0000.0001)     ;
(PID.TID 0000.0001) uniformFreeSurfLev = /* free-surface level-index is uniform */
(PID.TID 0000.0001)                   T
(PID.TID 0000.0001)     ;
(PID.TID 0000.0001) hFacMin =   /* minimum partial cell factor (hFac) */
(PID.TID 0000.0001)                 3.000000000000000E-01
(PID.TID 0000.0001)     ;
(PID.TID 0000.0001) hFacMinDr = /* minimum partial cell thickness ( m) */
(PID.TID 0000.0001)                 0.000000000000000E+00
(PID.TID 0000.0001)     ;
(PID.TID 0000.0001) exactConserv =  /* Exact Volume Conservation on/off flag*/
(PID.TID 0000.0001)                   T
(PID.TID 0000.0001)     ;
(PID.TID 0000.0001) linFSConserveTr = /* Tracer correction for Lin Free Surface on/off flag*/
(PID.TID 0000.0001)                   F
(PID.TID 0000.0001)     ;
(PID.TID 0000.0001) nonlinFreeSurf = /* Non-linear Free Surf. options (-1,0,1,2,3)*/
(PID.TID 0000.0001)                       0
(PID.TID 0000.0001)      -1,0= Off ; 1,2,3= On, 2=+rescale gU,gV, 3=+update cg2d solv.
(PID.TID 0000.0001)     ;
(PID.TID 0000.0001) hFacInf =   /* lower threshold for hFac (nonlinFreeSurf only)*/
(PID.TID 0000.0001)                 1.000000000000000E-01
(PID.TID 0000.0001)     ;
(PID.TID 0000.0001) hFacSup =   /* upper threshold for hFac (nonlinFreeSurf only)*/
(PID.TID 0000.0001)                 5.000000000000000E+00
(PID.TID 0000.0001)     ;
(PID.TID 0000.0001) select_rStar = /* r* Vertical coord. options (=0 r coord.; >0 uses r*)*/
(PID.TID 0000.0001)                       0
(PID.TID 0000.0001)     ;
(PID.TID 0000.0001) useRealFreshWaterFlux = /* Real Fresh Water Flux on/off flag*/
(PID.TID 0000.0001)                   T
(PID.TID 0000.0001)     ;
(PID.TID 0000.0001) temp_EvPrRn = /* Temp. of Evap/Prec/R (UNSET=use local T)(oC)*/
(PID.TID 0000.0001)                 0.000000000000000E+00
(PID.TID 0000.0001)     ;
(PID.TID 0000.0001) salt_EvPrRn = /* Salin. of Evap/Prec/R (UNSET=use local S)(psu)*/
(PID.TID 0000.0001)                 0.000000000000000E+00
(PID.TID 0000.0001)     ;
(PID.TID 0000.0001) selectAddFluid = /* option for mass source/sink of fluid (=0: off) */
(PID.TID 0000.0001)                       0
(PID.TID 0000.0001)     ;
(PID.TID 0000.0001) temp_addMass = /* Temp. of addMass array (UNSET=use local T)(oC)*/
(PID.TID 0000.0001)                 0.000000000000000E+00
(PID.TID 0000.0001)     ;
(PID.TID 0000.0001) salt_addMass = /* Salin. of addMass array (UNSET=use local S)(psu)*/
(PID.TID 0000.0001)                 0.000000000000000E+00
(PID.TID 0000.0001)     ;
(PID.TID 0000.0001) convertFW2Salt = /* convert F.W. Flux to Salt Flux (-1=use local S)(psu)*/
(PID.TID 0000.0001)                -1.000000000000000E+00
(PID.TID 0000.0001)     ;
(PID.TID 0000.0001) use3Dsolver = /* use 3-D pressure solver on/off flag */
(PID.TID 0000.0001)                   F
(PID.TID 0000.0001)     ;
(PID.TID 0000.0001) nonHydrostatic =  /* Non-Hydrostatic on/off flag */
(PID.TID 0000.0001)                   F
(PID.TID 0000.0001)     ;
(PID.TID 0000.0001) nh_Am2 = /* Non-Hydrostatic terms scaling factor */
(PID.TID 0000.0001)                 1.000000000000000E+00
(PID.TID 0000.0001)     ;
(PID.TID 0000.0001) implicitNHPress = /* Non-Hyd Pressure implicit factor (0-1)*/
(PID.TID 0000.0001)                 6.000000000000000E-01
(PID.TID 0000.0001)     ;
(PID.TID 0000.0001) selectNHfreeSurf = /* Non-Hyd (free-)Surface option */
(PID.TID 0000.0001)                       0
(PID.TID 0000.0001)     ;
(PID.TID 0000.0001) quasiHydrostatic = /* Quasi-Hydrostatic on/off flag */
(PID.TID 0000.0001)                   F
(PID.TID 0000.0001)     ;
(PID.TID 0000.0001) calc_wVelocity = /* vertical velocity calculation on/off flag */
(PID.TID 0000.0001)                   T
(PID.TID 0000.0001)     ;
(PID.TID 0000.0001) momStepping =  /* Momentum equation on/off flag */
(PID.TID 0000.0001)                   T
(PID.TID 0000.0001)     ;
(PID.TID 0000.0001) vectorInvariantMomentum= /* Vector-Invariant Momentum on/off */
(PID.TID 0000.0001)                   T
(PID.TID 0000.0001)     ;
(PID.TID 0000.0001) momAdvection =  /* Momentum advection on/off flag */
(PID.TID 0000.0001)                   T
(PID.TID 0000.0001)     ;
(PID.TID 0000.0001) momViscosity =  /* Momentum viscosity on/off flag */
(PID.TID 0000.0001)                   T
(PID.TID 0000.0001)     ;
(PID.TID 0000.0001) momImplVertAdv= /* Momentum implicit vert. advection on/off*/
(PID.TID 0000.0001)                   F
(PID.TID 0000.0001)     ;
(PID.TID 0000.0001) implicitViscosity = /* Implicit viscosity on/off flag */
(PID.TID 0000.0001)                   T
(PID.TID 0000.0001)     ;
(PID.TID 0000.0001) selectImplicitDrag= /* Implicit bot Drag options (0,1,2)*/
(PID.TID 0000.0001)                       0
(PID.TID 0000.0001)     0= Expl. ; 1= Impl. on provis. Vel ; 2= Fully Impl (with surf.P)
(PID.TID 0000.0001)     ;
(PID.TID 0000.0001) metricTerms =  /* metric-Terms on/off flag */
(PID.TID 0000.0001)                   F
(PID.TID 0000.0001)     ;
(PID.TID 0000.0001) useNHMTerms = /* Non-Hydrostatic Metric-Terms on/off */
(PID.TID 0000.0001)                   F
(PID.TID 0000.0001)     ;
(PID.TID 0000.0001) selectCoriMap = /* Coriolis Map options (0,1,2,3)*/
(PID.TID 0000.0001)                       2
(PID.TID 0000.0001)     0= f-Plane ; 1= Beta-Plane ; 2= Spherical ; 3= read from file
(PID.TID 0000.0001)     ;
(PID.TID 0000.0001) use3dCoriolis = /* 3-D Coriolis on/off flag */
(PID.TID 0000.0001)                   F
(PID.TID 0000.0001)     ;
(PID.TID 0000.0001) useCoriolis =  /* Coriolis on/off flag */
(PID.TID 0000.0001)                   T
(PID.TID 0000.0001)     ;
(PID.TID 0000.0001) useCDscheme =  /* CD scheme on/off flag */
(PID.TID 0000.0001)                   F
(PID.TID 0000.0001)     ;
(PID.TID 0000.0001) useEnergyConservingCoriolis= /* Flx-Form Coriolis scheme flag */
(PID.TID 0000.0001)                   F
(PID.TID 0000.0001)     ;
(PID.TID 0000.0001) useJamartWetPoints= /* Coriolis WetPoints method flag */
(PID.TID 0000.0001)                   F
(PID.TID 0000.0001)     ;
(PID.TID 0000.0001) useJamartMomAdv= /* V.I Non-linear terms Jamart flag */
(PID.TID 0000.0001)                   F
(PID.TID 0000.0001)     ;
(PID.TID 0000.0001) useAbsVorticity= /* V.I Works with f+zeta in Coriolis */
(PID.TID 0000.0001)                   F
(PID.TID 0000.0001)     ;
(PID.TID 0000.0001) selectVortScheme= /* V.I Scheme selector for Vorticity-Term */
(PID.TID 0000.0001)                       0
(PID.TID 0000.0001)    = 0 : enstrophy (Shallow-Water Eq.) conserving scheme by Sadourny, JAS 75
(PID.TID 0000.0001)    = 1 : same as 0 with modified hFac
(PID.TID 0000.0001)    = 2 : energy conserving scheme (used by Sadourny in JAS 75 paper)
(PID.TID 0000.0001)    = 3 : energy (general) and enstrophy (2D, nonDiv.) conserving scheme
(PID.TID 0000.0001)          from Sadourny (Burridge & Haseler, ECMWF Rep.4, 1977)
(PID.TID 0000.0001)     ;
(PID.TID 0000.0001) upwindVorticity= /* V.I Upwind bias vorticity flag */
(PID.TID 0000.0001)                   F
(PID.TID 0000.0001)     ;
(PID.TID 0000.0001) highOrderVorticity= /* V.I High order vort. advect. flag */
(PID.TID 0000.0001)                   T
(PID.TID 0000.0001)     ;
(PID.TID 0000.0001) upwindShear= /* V.I Upwind vertical Shear advection flag */
(PID.TID 0000.0001)                   F
(PID.TID 0000.0001)     ;
(PID.TID 0000.0001) selectKEscheme= /* V.I Kinetic Energy scheme selector */
(PID.TID 0000.0001)                       0
(PID.TID 0000.0001)     ;
(PID.TID 0000.0001) momForcing =  /* Momentum forcing on/off flag */
(PID.TID 0000.0001)                   T
(PID.TID 0000.0001)     ;
(PID.TID 0000.0001) momTidalForcing = /* Momentum Tidal forcing on/off flag */
(PID.TID 0000.0001)                   T
(PID.TID 0000.0001)     ;
(PID.TID 0000.0001) momPressureForcing =  /* Momentum pressure term on/off flag */
(PID.TID 0000.0001)                   T
(PID.TID 0000.0001)     ;
(PID.TID 0000.0001) implicitIntGravWave= /* Implicit Internal Gravity Wave flag */
(PID.TID 0000.0001)                   F
(PID.TID 0000.0001)     ;
(PID.TID 0000.0001) staggerTimeStep =    /* Stagger time stepping on/off flag */
(PID.TID 0000.0001)                   T
(PID.TID 0000.0001)     ;
(PID.TID 0000.0001) doResetHFactors = /* reset thickness factors @ each time-step */
(PID.TID 0000.0001)                   F
(PID.TID 0000.0001)     ;
(PID.TID 0000.0001) multiDimAdvection =  /* enable/disable Multi-Dim Advection */
(PID.TID 0000.0001)                   T
(PID.TID 0000.0001)     ;
(PID.TID 0000.0001) useMultiDimAdvec =   /* Multi-Dim Advection is/is-not used */
(PID.TID 0000.0001)                   T
(PID.TID 0000.0001)     ;
(PID.TID 0000.0001) implicitDiffusion = /* Implicit Diffusion on/off flag */
(PID.TID 0000.0001)                   T
(PID.TID 0000.0001)     ;
(PID.TID 0000.0001) tempStepping =  /* Temperature equation on/off flag */
(PID.TID 0000.0001)                   T
(PID.TID 0000.0001)     ;
(PID.TID 0000.0001) tempAdvection = /* Temperature advection on/off flag */
(PID.TID 0000.0001)                   T
(PID.TID 0000.0001)     ;
(PID.TID 0000.0001) tempImplVertAdv = /* Temp. implicit vert. advection on/off */
(PID.TID 0000.0001)                   F
(PID.TID 0000.0001)     ;
(PID.TID 0000.0001) tempForcing  =  /* Temperature forcing on/off flag */
(PID.TID 0000.0001)                   T
(PID.TID 0000.0001)     ;
(PID.TID 0000.0001) doThetaClimRelax = /* apply SST relaxation on/off flag */
(PID.TID 0000.0001)                   F
(PID.TID 0000.0001)     ;
(PID.TID 0000.0001) tempIsActiveTr = /* Temp. is a dynamically Active Tracer */
(PID.TID 0000.0001)                   T
(PID.TID 0000.0001)     ;
(PID.TID 0000.0001) saltStepping =  /* Salinity equation on/off flag */
(PID.TID 0000.0001)                   T
(PID.TID 0000.0001)     ;
(PID.TID 0000.0001) saltAdvection = /* Salinity advection on/off flag */
(PID.TID 0000.0001)                   T
(PID.TID 0000.0001)     ;
(PID.TID 0000.0001) saltImplVertAdv = /* Sali. implicit vert. advection on/off */
(PID.TID 0000.0001)                   F
(PID.TID 0000.0001)     ;
(PID.TID 0000.0001) saltForcing  =  /* Salinity forcing on/off flag */
(PID.TID 0000.0001)                   T
(PID.TID 0000.0001)     ;
(PID.TID 0000.0001) doSaltClimRelax = /* apply SSS relaxation on/off flag */
(PID.TID 0000.0001)                   F
(PID.TID 0000.0001)     ;
(PID.TID 0000.0001) saltIsActiveTr = /* Salt  is a dynamically Active Tracer */
(PID.TID 0000.0001)                   T
(PID.TID 0000.0001)     ;
(PID.TID 0000.0001)  readBinaryPrec = /* Precision used for reading binary files */
(PID.TID 0000.0001)                      32
(PID.TID 0000.0001)     ;
(PID.TID 0000.0001) writeBinaryPrec = /* Precision used for writing binary files */
(PID.TID 0000.0001)                      32
(PID.TID 0000.0001)     ;
(PID.TID 0000.0001)  rwSuffixType =   /* select format of mds file suffix */
(PID.TID 0000.0001)                       0
(PID.TID 0000.0001)    = 0 : myIter (I10.10) ;   = 1 : 100*myTime (100th sec) ;
(PID.TID 0000.0001)    = 2 : myTime (seconds);   = 3 : myTime/360 (10th of hr);
(PID.TID 0000.0001)    = 4 : myTime/3600 (hours)
(PID.TID 0000.0001)     ;
(PID.TID 0000.0001)  globalFiles = /* write "global" (=not per tile) files */
(PID.TID 0000.0001)                   T
(PID.TID 0000.0001)     ;
(PID.TID 0000.0001)  useSingleCpuIO = /* only master MPI process does I/O */
(PID.TID 0000.0001)                   T
(PID.TID 0000.0001)     ;
(PID.TID 0000.0001)  useSingleCpuInput = /* only master process reads input */
(PID.TID 0000.0001)                   T
(PID.TID 0000.0001)     ;
(PID.TID 0000.0001) /* debLev[*]  : level of debug & auxiliary message printing */
(PID.TID 0000.0001) debLevZero =  0 ; /* level of disabled aux. msg printing */
(PID.TID 0000.0001)    debLevA =  1 ; /* level of minimum  aux. msg printing */
(PID.TID 0000.0001)    debLevB =  2 ; /* level of low aux. print (report read-file opening)*/
(PID.TID 0000.0001)    debLevC =  3 ; /* level of moderate debug prt (most pkgs debug msg) */
(PID.TID 0000.0001)    debLevD =  4 ; /* level of enhanced debug prt (add DEBUG_STATS prt) */
(PID.TID 0000.0001)    debLevE =  5 ; /* level of extensive debug printing */
(PID.TID 0000.0001) debugLevel =  /* select debug printing level */
(PID.TID 0000.0001)                       2
(PID.TID 0000.0001)     ;
(PID.TID 0000.0001)  plotLevel =  /* select PLOT_FIELD printing level */
(PID.TID 0000.0001)                       2
(PID.TID 0000.0001)     ;
(PID.TID 0000.0001) //
(PID.TID 0000.0001) // Elliptic solver(s) paramters ( PARM02 in namelist )
(PID.TID 0000.0001) //
(PID.TID 0000.0001) cg2dMaxIters =   /* Upper limit on 2d con. grad iterations  */
(PID.TID 0000.0001)                     100
(PID.TID 0000.0001)     ;
(PID.TID 0000.0001) cg2dChkResFreq =   /* 2d con. grad convergence test frequency */
(PID.TID 0000.0001)                       1
(PID.TID 0000.0001)     ;
(PID.TID 0000.0001) cg2dUseMinResSol= /* use cg2d last-iter(=0) / min-resid.(=1) solution */
(PID.TID 0000.0001)                       0
(PID.TID 0000.0001)     ;
(PID.TID 0000.0001) cg2dTargetResidual =   /* 2d con. grad target residual  */
(PID.TID 0000.0001)                 1.000000000000000E-05
(PID.TID 0000.0001)     ;
(PID.TID 0000.0001) cg2dTargetResWunit =   /* CG2d target residual [W units] */
(PID.TID 0000.0001)                -1.000000000000000E+00
(PID.TID 0000.0001)     ;
(PID.TID 0000.0001) cg2dPreCondFreq =   /* Freq. for updating cg2d preconditioner */
(PID.TID 0000.0001)                       1
(PID.TID 0000.0001)     ;
(PID.TID 0000.0001) useSRCGSolver =  /* use single reduction CG solver(s) */
(PID.TID 0000.0001)                   F
(PID.TID 0000.0001)     ;
(PID.TID 0000.0001) printResidualFreq = /* Freq. for printing CG residual */
(PID.TID 0000.0001)                       0
(PID.TID 0000.0001)     ;
(PID.TID 0000.0001) //
(PID.TID 0000.0001) // Time stepping paramters ( PARM03 in namelist )
(PID.TID 0000.0001) //
(PID.TID 0000.0001) deltaTMom =   /* Momentum equation timestep ( s ) */
(PID.TID 0000.0001)                 9.000000000000000E+02
(PID.TID 0000.0001)     ;
(PID.TID 0000.0001) deltaTFreeSurf = /* FreeSurface equation timestep ( s ) */
(PID.TID 0000.0001)                 9.000000000000000E+02
(PID.TID 0000.0001)     ;
(PID.TID 0000.0001) dTtracerLev =  /* Tracer equation timestep ( s ) */
(PID.TID 0000.0001)    50 @  9.000000000000000E+02              /* K =  1: 50 */
(PID.TID 0000.0001)     ;
(PID.TID 0000.0001) deltaTClock  =   /* Model clock timestep ( s ) */
(PID.TID 0000.0001)                 9.000000000000000E+02
(PID.TID 0000.0001)     ;
(PID.TID 0000.0001) cAdjFreq =   /* Convective adjustment interval ( s ) */
(PID.TID 0000.0001)                 0.000000000000000E+00
(PID.TID 0000.0001)     ;
(PID.TID 0000.0001) momForcingOutAB = /* =1: take Momentum Forcing out of Adams-Bash. stepping */
(PID.TID 0000.0001)                       1
(PID.TID 0000.0001)     ;
(PID.TID 0000.0001) tracForcingOutAB = /* =1: take T,S,pTr Forcing out of Adams-Bash. stepping */
(PID.TID 0000.0001)                       1
(PID.TID 0000.0001)     ;
(PID.TID 0000.0001) momDissip_In_AB = /* put Dissipation Tendency in Adams-Bash. stepping */
(PID.TID 0000.0001)                   F
(PID.TID 0000.0001)     ;
(PID.TID 0000.0001) doAB_onGtGs = /* apply AB on Tendencies (rather than on T,S)*/
(PID.TID 0000.0001)                   T
(PID.TID 0000.0001)     ;
(PID.TID 0000.0001) abEps =   /* Adams-Bashforth-2 stabilizing weight */
(PID.TID 0000.0001)                 1.000000000000000E-01
(PID.TID 0000.0001)     ;
(PID.TID 0000.0001) applyExchUV_early = /* Apply EXCH to U,V earlier in time-step */
(PID.TID 0000.0001)                   F
(PID.TID 0000.0001)     ;
(PID.TID 0000.0001) pickupStrictlyMatch= /* stop if pickup do not strictly match */
(PID.TID 0000.0001)                   T
(PID.TID 0000.0001)     ;
(PID.TID 0000.0001) nIter0   =   /* Run starting timestep number */
(PID.TID 0000.0001)                       1
(PID.TID 0000.0001)     ;
(PID.TID 0000.0001) nTimeSteps = /* Number of timesteps */
(PID.TID 0000.0001)                      96
(PID.TID 0000.0001)     ;
(PID.TID 0000.0001) nEndIter =   /* Run ending timestep number */
(PID.TID 0000.0001)                      97
(PID.TID 0000.0001)     ;
(PID.TID 0000.0001) baseTime =   /* Model base time ( s ) */
(PID.TID 0000.0001)                 0.000000000000000E+00
(PID.TID 0000.0001)     ;
(PID.TID 0000.0001) startTime =  /* Run start time ( s ) */
(PID.TID 0000.0001)                 9.000000000000000E+02
(PID.TID 0000.0001)     ;
(PID.TID 0000.0001) endTime  =   /* Integration ending time ( s ) */
(PID.TID 0000.0001)                 8.730000000000000E+04
(PID.TID 0000.0001)     ;
(PID.TID 0000.0001) pChkPtFreq = /* Permanent restart/pickup file interval ( s ) */
(PID.TID 0000.0001)                 0.000000000000000E+00
(PID.TID 0000.0001)     ;
(PID.TID 0000.0001) chkPtFreq  = /* Rolling restart/pickup file interval ( s ) */
(PID.TID 0000.0001)                 8.640000000000000E+04
(PID.TID 0000.0001)     ;
(PID.TID 0000.0001) pickup_write_mdsio =   /* Model IO flag. */
(PID.TID 0000.0001)                   T
(PID.TID 0000.0001)     ;
(PID.TID 0000.0001) pickup_read_mdsio =   /* Model IO flag. */
(PID.TID 0000.0001)                   T
(PID.TID 0000.0001)     ;
(PID.TID 0000.0001) writePickupAtEnd =   /* Model IO flag. */
(PID.TID 0000.0001)                   T
(PID.TID 0000.0001)     ;
(PID.TID 0000.0001) dumpFreq =   /* Model state write out interval ( s ). */
(PID.TID 0000.0001)                 3.600000000000000E+03
(PID.TID 0000.0001)     ;
(PID.TID 0000.0001) dumpInitAndLast= /* write out Initial & Last iter. model state */
(PID.TID 0000.0001)                   F
(PID.TID 0000.0001)     ;
(PID.TID 0000.0001) snapshot_mdsio =   /* Model IO flag. */
(PID.TID 0000.0001)                   T
(PID.TID 0000.0001)     ;
(PID.TID 0000.0001) monitorFreq =   /* Monitor output interval ( s ). */
(PID.TID 0000.0001)                 7.200000000000000E+03
(PID.TID 0000.0001)     ;
(PID.TID 0000.0001) monitorSelect = /* select group of variables to monitor */
(PID.TID 0000.0001)                       3
(PID.TID 0000.0001)     ;
(PID.TID 0000.0001) monitor_stdio =   /* Model IO flag. */
(PID.TID 0000.0001)                   T
(PID.TID 0000.0001)     ;
(PID.TID 0000.0001) externForcingPeriod =   /* forcing period (s) */
(PID.TID 0000.0001)                 0.000000000000000E+00
(PID.TID 0000.0001)     ;
(PID.TID 0000.0001) externForcingCycle =   /* period of the cyle (s). */
(PID.TID 0000.0001)                 0.000000000000000E+00
(PID.TID 0000.0001)     ;
(PID.TID 0000.0001) tauThetaClimRelax =   /* relaxation time scale (s) */
(PID.TID 0000.0001)                 0.000000000000000E+00
(PID.TID 0000.0001)     ;
(PID.TID 0000.0001) tauSaltClimRelax =   /* relaxation time scale (s) */
(PID.TID 0000.0001)                 0.000000000000000E+00
(PID.TID 0000.0001)     ;
(PID.TID 0000.0001) latBandClimRelax =   /* max. Lat. where relaxation */
(PID.TID 0000.0001)                 1.800000000000000E+02
(PID.TID 0000.0001)     ;
(PID.TID 0000.0001) //
(PID.TID 0000.0001) // Gridding paramters ( PARM04 in namelist )
(PID.TID 0000.0001) //
(PID.TID 0000.0001) usingCartesianGrid = /* Cartesian coordinates flag ( True/False ) */
(PID.TID 0000.0001)                   F
(PID.TID 0000.0001)     ;
(PID.TID 0000.0001) usingCylindricalGrid = /* Cylindrical coordinates flag ( True/False ) */
(PID.TID 0000.0001)                   F
(PID.TID 0000.0001)     ;
(PID.TID 0000.0001) usingSphericalPolarGrid = /* Spherical coordinates flag ( True/False ) */
(PID.TID 0000.0001)                   F
(PID.TID 0000.0001)     ;
(PID.TID 0000.0001) usingCurvilinearGrid = /* Curvilinear coordinates flag ( True/False ) */
(PID.TID 0000.0001)                   T
(PID.TID 0000.0001)     ;
(PID.TID 0000.0001) useMin4hFacEdges = /* set hFacW,S as minimum of adjacent hFacC factor */
(PID.TID 0000.0001)                   F
(PID.TID 0000.0001)     ;
(PID.TID 0000.0001) selectSigmaCoord = /* Hybrid-Sigma Vert. Coordinate option */
(PID.TID 0000.0001)                       0
(PID.TID 0000.0001)     ;
(PID.TID 0000.0001) rSigmaBnd = /* r/sigma transition ( units of r ==  m ) */
(PID.TID 0000.0001)                 1.234567000000000E+05
(PID.TID 0000.0001)     ;
(PID.TID 0000.0001) rkSign =   /* index orientation relative to vertical coordinate */
(PID.TID 0000.0001)                -1.000000000000000E+00
(PID.TID 0000.0001)     ;
(PID.TID 0000.0001) gravitySign = /* gravity orientation relative to vertical coordinate */
(PID.TID 0000.0001)                -1.000000000000000E+00
(PID.TID 0000.0001)     ;
(PID.TID 0000.0001) seaLev_Z =  /* reference height of sea-level [m] */
(PID.TID 0000.0001)                 0.000000000000000E+00
(PID.TID 0000.0001)     ;
(PID.TID 0000.0001) top_Pres =  /* reference pressure at the top [Pa] */
(PID.TID 0000.0001)                 0.000000000000000E+00
(PID.TID 0000.0001)     ;
(PID.TID 0000.0001) mass2rUnit = /* convert mass per unit area [kg/m2] to r-units [m] */
(PID.TID 0000.0001)                 9.732360097323601E-04
(PID.TID 0000.0001)     ;
(PID.TID 0000.0001) rUnit2mass = /* convert r-units [m] to mass per unit area [kg/m2] */
(PID.TID 0000.0001)                 1.027500000000000E+03
(PID.TID 0000.0001)     ;
(PID.TID 0000.0001) drC =   /* C spacing ( units of r ) */
(PID.TID 0000.0001)                 5.000000000000000E+00,      /* K =  1 */
(PID.TID 0000.0001)     6 @  1.000000000000000E+01,             /* K =  2:  7 */
(PID.TID 0000.0001)                 1.000500000000000E+01,      /* K =  8 */
(PID.TID 0000.0001)                 1.002000000000000E+01,      /* K =  9 */
(PID.TID 0000.0001)                 1.007000000000000E+01,      /* K = 10 */
(PID.TID 0000.0001)                 1.021500000000000E+01,      /* K = 11 */
(PID.TID 0000.0001)                 1.056000000000000E+01,      /* K = 12 */
(PID.TID 0000.0001)                 1.128000000000000E+01,      /* K = 13 */
(PID.TID 0000.0001)                 1.259000000000000E+01,      /* K = 14 */
(PID.TID 0000.0001)                 1.473000000000000E+01,      /* K = 15 */
(PID.TID 0000.0001)                 1.793000000000000E+01,      /* K = 16 */
(PID.TID 0000.0001)                 2.233500000000000E+01,      /* K = 17 */
(PID.TID 0000.0001)                 2.797500000000000E+01,      /* K = 18 */
(PID.TID 0000.0001)                 3.476000000000001E+01,      /* K = 19 */
(PID.TID 0000.0001)                 4.246000000000000E+01,      /* K = 20 */
(PID.TID 0000.0001)                 5.075000000000000E+01,      /* K = 21 */
(PID.TID 0000.0001)                 5.925000000000000E+01,      /* K = 22 */
(PID.TID 0000.0001)                 6.753999999999999E+01,      /* K = 23 */
(PID.TID 0000.0001)                 7.524000000000001E+01,      /* K = 24 */
(PID.TID 0000.0001)                 8.202500000000001E+01,      /* K = 25 */
(PID.TID 0000.0001)                 8.766500000000001E+01,      /* K = 26 */
(PID.TID 0000.0001)                 9.206999999999999E+01,      /* K = 27 */
(PID.TID 0000.0001)                 9.527000000000000E+01,      /* K = 28 */
(PID.TID 0000.0001)                 9.741499999999999E+01,      /* K = 29 */
(PID.TID 0000.0001)                 9.875000000000000E+01,      /* K = 30 */
(PID.TID 0000.0001)                 9.963000000000000E+01,      /* K = 31 */
(PID.TID 0000.0001)                 1.006700000000000E+02,      /* K = 32 */
(PID.TID 0000.0001)                 1.029450000000000E+02,      /* K = 33 */
(PID.TID 0000.0001)                 1.079450000000000E+02,      /* K = 34 */
(PID.TID 0000.0001)                 1.170800000000000E+02,      /* K = 35 */
(PID.TID 0000.0001)                 1.309600000000000E+02,      /* K = 36 */
(PID.TID 0000.0001)                 1.490150000000000E+02,      /* K = 37 */
(PID.TID 0000.0001)                 1.698850000000000E+02,      /* K = 38 */
(PID.TID 0000.0001)                 1.921900000000000E+02,      /* K = 39 */
(PID.TID 0000.0001)                 2.150250000000000E+02,      /* K = 40 */
(PID.TID 0000.0001)                 2.380000000000000E+02,      /* K = 41 */
(PID.TID 0000.0001)                 2.610000000000000E+02,      /* K = 42 */
(PID.TID 0000.0001)                 2.840000000000000E+02,      /* K = 43 */
(PID.TID 0000.0001)                 3.070000000000000E+02,      /* K = 44 */
(PID.TID 0000.0001)                 3.300000000000000E+02,      /* K = 45 */
(PID.TID 0000.0001)                 3.530000000000000E+02,      /* K = 46 */
(PID.TID 0000.0001)                 3.760000000000000E+02,      /* K = 47 */
(PID.TID 0000.0001)                 3.990000000000000E+02,      /* K = 48 */
(PID.TID 0000.0001)                 4.220000000000000E+02,      /* K = 49 */
(PID.TID 0000.0001)                 4.450000000000000E+02,      /* K = 50 */
(PID.TID 0000.0001)                 2.282500000000000E+02       /* K = 51 */
(PID.TID 0000.0001)     ;
(PID.TID 0000.0001) drF =   /* W spacing ( units of r ) */
(PID.TID 0000.0001)     7 @  1.000000000000000E+01,             /* K =  1:  7 */
(PID.TID 0000.0001)                 1.001000000000000E+01,      /* K =  8 */
(PID.TID 0000.0001)                 1.003000000000000E+01,      /* K =  9 */
(PID.TID 0000.0001)                 1.011000000000000E+01,      /* K = 10 */
(PID.TID 0000.0001)                 1.032000000000000E+01,      /* K = 11 */
(PID.TID 0000.0001)                 1.080000000000000E+01,      /* K = 12 */
(PID.TID 0000.0001)                 1.176000000000000E+01,      /* K = 13 */
(PID.TID 0000.0001)                 1.342000000000000E+01,      /* K = 14 */
(PID.TID 0000.0001)                 1.604000000000000E+01,      /* K = 15 */
(PID.TID 0000.0001)                 1.982000000000000E+01,      /* K = 16 */
(PID.TID 0000.0001)                 2.485000000000000E+01,      /* K = 17 */
(PID.TID 0000.0001)                 3.110000000000000E+01,      /* K = 18 */
(PID.TID 0000.0001)                 3.842000000000000E+01,      /* K = 19 */
(PID.TID 0000.0001)                 4.650000000000000E+01,      /* K = 20 */
(PID.TID 0000.0001)                 5.500000000000000E+01,      /* K = 21 */
(PID.TID 0000.0001)                 6.350000000000000E+01,      /* K = 22 */
(PID.TID 0000.0001)                 7.158000000000000E+01,      /* K = 23 */
(PID.TID 0000.0001)                 7.890000000000001E+01,      /* K = 24 */
(PID.TID 0000.0001)                 8.515000000000001E+01,      /* K = 25 */
(PID.TID 0000.0001)                 9.018000000000001E+01,      /* K = 26 */
(PID.TID 0000.0001)                 9.395999999999999E+01,      /* K = 27 */
(PID.TID 0000.0001)                 9.658000000000000E+01,      /* K = 28 */
(PID.TID 0000.0001)                 9.825000000000000E+01,      /* K = 29 */
(PID.TID 0000.0001)                 9.925000000000000E+01,      /* K = 30 */
(PID.TID 0000.0001)                 1.000100000000000E+02,      /* K = 31 */
(PID.TID 0000.0001)                 1.013300000000000E+02,      /* K = 32 */
(PID.TID 0000.0001)                 1.045600000000000E+02,      /* K = 33 */
(PID.TID 0000.0001)                 1.113300000000000E+02,      /* K = 34 */
(PID.TID 0000.0001)                 1.228300000000000E+02,      /* K = 35 */
(PID.TID 0000.0001)                 1.390900000000000E+02,      /* K = 36 */
(PID.TID 0000.0001)                 1.589400000000000E+02,      /* K = 37 */
(PID.TID 0000.0001)                 1.808300000000000E+02,      /* K = 38 */
(PID.TID 0000.0001)                 2.035500000000000E+02,      /* K = 39 */
(PID.TID 0000.0001)                 2.265000000000000E+02,      /* K = 40 */
(PID.TID 0000.0001)                 2.495000000000000E+02,      /* K = 41 */
(PID.TID 0000.0001)                 2.725000000000000E+02,      /* K = 42 */
(PID.TID 0000.0001)                 2.955000000000000E+02,      /* K = 43 */
(PID.TID 0000.0001)                 3.185000000000000E+02,      /* K = 44 */
(PID.TID 0000.0001)                 3.415000000000000E+02,      /* K = 45 */
(PID.TID 0000.0001)                 3.645000000000000E+02,      /* K = 46 */
(PID.TID 0000.0001)                 3.875000000000000E+02,      /* K = 47 */
(PID.TID 0000.0001)                 4.105000000000000E+02,      /* K = 48 */
(PID.TID 0000.0001)                 4.335000000000000E+02,      /* K = 49 */
(PID.TID 0000.0001)                 4.565000000000000E+02       /* K = 50 */
(PID.TID 0000.0001)     ;
(PID.TID 0000.0001) radius_fromHorizGrid = /* sphere Radius of input horiz. grid */
(PID.TID 0000.0001)                 6.370000000000000E+06
(PID.TID 0000.0001)     ;
(PID.TID 0000.0001) rSphere =  /* Radius ( ignored - cartesian, m - spherical ) */
(PID.TID 0000.0001)                 6.370000000000000E+06
(PID.TID 0000.0001)     ;
(PID.TID 0000.0001) deepAtmosphere = /* Deep/Shallow Atmosphere flag (True/False) */
(PID.TID 0000.0001)                   F
(PID.TID 0000.0001)     ;
(PID.TID 0000.0001) xC =  /* xC(:,1,:,1) : P-point X coord ( deg. or m if cartesian) */
(PID.TID 0000.0001)                -4.081468768806280E+01,      /* I =  1 */
[...]
(PID.TID 0000.0001) %MON dynstat_sss_min              =   1.8851232619112E+01
(PID.TID 0000.0001) %MON dynstat_sss_mean             =   3.4778579939647E+01
(PID.TID 0000.0001) %MON dynstat_sss_sd               =   9.8038087818815E-01
(PID.TID 0000.0001) %MON dynstat_sss_del2             =   1.6277518703573E-03
(PID.TID 0000.0001) %MON forcing_qnet_max             =   1.9545121862945E+03
(PID.TID 0000.0001) %MON forcing_qnet_min             =  -6.4820297028557E+03
(PID.TID 0000.0001) %MON forcing_qnet_mean            =  -1.2533765052311E+01
(PID.TID 0000.0001) %MON forcing_qnet_sd              =   2.1895696648223E+02
(PID.TID 0000.0001) %MON forcing_qnet_del2            =   6.2361218713537E-01
(PID.TID 0000.0001) %MON forcing_qsw_max              =   0.0000000000000E+00
(PID.TID 0000.0001) %MON forcing_qsw_min              =  -5.4140336796252E+02
(PID.TID 0000.0001) %MON forcing_qsw_mean             =  -9.2020832727325E+01
(PID.TID 0000.0001) %MON forcing_qsw_sd               =   1.4007842860697E+02
(PID.TID 0000.0001) %MON forcing_qsw_del2             =   2.2719681833987E-01
(PID.TID 0000.0001) %MON forcing_empmr_max            =   1.0331941768527E-02
(PID.TID 0000.0001) %MON forcing_empmr_min            =  -1.0149580240250E-01
(PID.TID 0000.0001) %MON forcing_empmr_mean           =  -8.3725936978967E-06
(PID.TID 0000.0001) %MON forcing_empmr_sd             =   4.0664859269611E-04
(PID.TID 0000.0001) %MON forcing_empmr_del2           =   2.6062590753954E-06
(PID.TID 0000.0001) %MON forcing_fu_max               =   9.3229511380196E-01
(PID.TID 0000.0001) %MON forcing_fu_min               =  -6.5982693382549E-01
(PID.TID 0000.0001) %MON forcing_fu_mean              =   9.8092697896642E-03
(PID.TID 0000.0001) %MON forcing_fu_sd                =   9.9352261246651E-02
(PID.TID 0000.0001) %MON forcing_fu_del2              =   1.3785621506768E-04
(PID.TID 0000.0001) %MON forcing_fv_max               =   8.7968516349793E-01
(PID.TID 0000.0001) %MON forcing_fv_min               =  -8.0317208317042E-01
(PID.TID 0000.0001) %MON forcing_fv_mean              =  -1.0479695165444E-02
(PID.TID 0000.0001) %MON forcing_fv_sd                =   1.0068524634166E-01
(PID.TID 0000.0001) %MON forcing_fv_del2              =   1.1516806196538E-04
(PID.TID 0000.0001) %MON trAdv_CFL_u_max              =   2.5683249042337E-02
(PID.TID 0000.0001) %MON trAdv_CFL_v_max              =   2.6176380210387E-02
(PID.TID 0000.0001) %MON trAdv_CFL_w_max              =   1.7320594817830E-01
(PID.TID 0000.0001) %MON advcfl_uvel_max              =   2.5974273340981E-02
(PID.TID 0000.0001) %MON advcfl_vvel_max              =   2.6175762639903E-02
(PID.TID 0000.0001) %MON advcfl_wvel_max              =   1.8007814616517E-01
(PID.TID 0000.0001) %MON advcfl_W_hf_max              =   1.8808161932807E-01
(PID.TID 0000.0001) %MON pe_b_mean                    =   6.4085151542170E-04
(PID.TID 0000.0001) %MON ke_max                       =   1.3821807988230E+00
(PID.TID 0000.0001) %MON ke_mean                      =   1.2030101592672E-03
(PID.TID 0000.0001) %MON ke_vol                       =   1.3350064351420E+18
(PID.TID 0000.0001) %MON vort_r_min                   =  -4.6958591715830E-05
(PID.TID 0000.0001) %MON vort_r_max                   =   4.7724553111392E-05
(PID.TID 0000.0001) %MON vort_a_mean                  =  -1.9725213241026E-05
(PID.TID 0000.0001) %MON vort_a_sd                    =   7.4541845961632E-05
(PID.TID 0000.0001) %MON vort_p_mean                  =  -2.1669263470803E-05
(PID.TID 0000.0001) %MON vort_p_sd                    =   9.3622702465169E-05
(PID.TID 0000.0001) %MON surfExpan_theta_mean         =  -7.8098777173670E-06
(PID.TID 0000.0001) %MON surfExpan_salt_mean          =  -2.5652279917448E-07
(PID.TID 0000.0001) // =======================================================
(PID.TID 0000.0001) // End MONITOR dynamic field statistics
(PID.TID 0000.0001) // =======================================================
 cg2d: Sum(rhs),rhsMax =   2.86383628075594E+01  2.96797880073178E+00
 cg2d: Sum(rhs),rhsMax =   2.84453102802720E+01  2.96441383922988E+00
 cg2d: Sum(rhs),rhsMax =   2.82239148046735E+01  2.96345920486897E+00
 cg2d: Sum(rhs),rhsMax =   2.79701868004888E+01  2.96598742225504E+00
 cg2d: Sum(rhs),rhsMax =   2.76869486064475E+01  2.97118896459783E+00
 cg2d: Sum(rhs),rhsMax =   2.73874904038023E+01  2.97865592548537E+00
 cg2d: Sum(rhs),rhsMax =   2.70818729643509E+01  2.98773124544007E+00
 cg2d: Sum(rhs),rhsMax =   2.67684349511417E+01  2.99749544265932E+00
(PID.TID 0000.0001)      cg2d_init_res =   7.30269745827376E-01
(PID.TID 0000.0001)      cg2d_iters(min,last) =      -1      23
(PID.TID 0000.0001)      cg2d_last_res =   7.21607033829364E-06
(PID.TID 0000.0001) // =======================================================
(PID.TID 0000.0001) // Begin MONITOR dynamic field statistics
(PID.TID 0000.0001) // =======================================================
(PID.TID 0000.0001) %MON time_tsnumber                =                    88
(PID.TID 0000.0001) %MON time_secondsf                =   7.9200000000000E+04
(PID.TID 0000.0001) %MON dynstat_eta_max              =   1.0902688682148E+00
(PID.TID 0000.0001) %MON dynstat_eta_min              =  -3.0816471331897E+00
(PID.TID 0000.0001) %MON dynstat_eta_mean             =  -9.1374929420040E-04
(PID.TID 0000.0001) %MON dynstat_eta_sd               =   6.9440483810959E-01
(PID.TID 0000.0001) %MON dynstat_eta_del2             =   1.6486040213141E-04
(PID.TID 0000.0001) %MON dynstat_uvel_max             =   1.6692175070186E+00
(PID.TID 0000.0001) %MON dynstat_uvel_min             =  -1.4900474581785E+00
(PID.TID 0000.0001) %MON dynstat_uvel_mean            =   8.3823289458340E-04
(PID.TID 0000.0001) %MON dynstat_uvel_sd              =   3.4260226504935E-02
(PID.TID 0000.0001) %MON dynstat_uvel_del2            =   7.1855007099787E-05
(PID.TID 0000.0001) %MON dynstat_vvel_max             =   1.4687338240706E+00
(PID.TID 0000.0001) %MON dynstat_vvel_min             =  -1.1587666101323E+00
(PID.TID 0000.0001) %MON dynstat_vvel_mean            =   1.5783961921735E-03
(PID.TID 0000.0001) %MON dynstat_vvel_sd              =   3.5610371732528E-02
(PID.TID 0000.0001) %MON dynstat_vvel_del2            =   7.4514170553837E-05
(PID.TID 0000.0001) %MON dynstat_wvel_max             =   9.6140269378880E-03
(PID.TID 0000.0001) %MON dynstat_wvel_min             =  -9.9067459995874E-03
(PID.TID 0000.0001) %MON dynstat_wvel_mean            =   2.4289667236328E-21
(PID.TID 0000.0001) %MON dynstat_wvel_sd              =   4.4081203877394E-04
(PID.TID 0000.0001) %MON dynstat_wvel_del2            =   9.8135439172131E-07
(PID.TID 0000.0001) %MON dynstat_theta_max            =   3.2596384491375E+01
(PID.TID 0000.0001) %MON dynstat_theta_min            =  -2.3832875679655E+00
(PID.TID 0000.0001) %MON dynstat_theta_mean           =   3.5903264104412E+00
(PID.TID 0000.0001) %MON dynstat_theta_sd             =   4.4236669989075E+00
(PID.TID 0000.0001) %MON dynstat_theta_del2           =   2.2869363750852E-04
(PID.TID 0000.0001) %MON dynstat_salt_max             =   4.0711487074512E+01
(PID.TID 0000.0001) %MON dynstat_salt_min             =   1.8544365708566E+01
(PID.TID 0000.0001) %MON dynstat_salt_mean            =   3.4725442893322E+01
(PID.TID 0000.0001) %MON dynstat_salt_sd              =   3.6770750370249E-01
(PID.TID 0000.0001) %MON dynstat_salt_del2            =   9.4936218451161E-05
(PID.TID 0000.0001) %MON dynstat_sst_max              =   3.2576289545459E+01
(PID.TID 0000.0001) %MON dynstat_sst_min              =  -2.3832875679655E+00
(PID.TID 0000.0001) %MON dynstat_sst_mean             =   1.8261273164385E+01
(PID.TID 0000.0001) %MON dynstat_sst_sd               =   1.0225590224876E+01
(PID.TID 0000.0001) %MON dynstat_sst_del2             =   2.0232042685562E-03
(PID.TID 0000.0001) %MON dynstat_sss_max              =   3.9218967452381E+01
(PID.TID 0000.0001) %MON dynstat_sss_min              =   1.8544365708566E+01
(PID.TID 0000.0001) %MON dynstat_sss_mean             =   3.4778550479094E+01
(PID.TID 0000.0001) %MON dynstat_sss_sd               =   9.8125645560722E-01
(PID.TID 0000.0001) %MON dynstat_sss_del2             =   1.6006197487985E-03
(PID.TID 0000.0001) %MON forcing_qnet_max             =   3.6980988769531E+03
(PID.TID 0000.0001) %MON forcing_qnet_min             =  -2.4647795410156E+03
(PID.TID 0000.0001) %MON forcing_qnet_mean            =  -2.2675527915865E+01
(PID.TID 0000.0001) %MON forcing_qnet_sd              =   2.2165551547282E+02
(PID.TID 0000.0001) %MON forcing_qnet_del2            =   5.8854297622020E-01
(PID.TID 0000.0001) %MON forcing_qsw_max              =   0.0000000000000E+00
(PID.TID 0000.0001) %MON forcing_qsw_min              =  -5.3374316624769E+02
(PID.TID 0000.0001) %MON forcing_qsw_mean             =  -9.9501072140744E+01
(PID.TID 0000.0001) %MON forcing_qsw_sd               =   1.4403242946963E+02
(PID.TID 0000.0001) %MON forcing_qsw_del2             =   2.3440151475962E-01
(PID.TID 0000.0001) %MON forcing_empmr_max            =   5.6624352000654E-03
(PID.TID 0000.0001) %MON forcing_empmr_min            =  -9.8287202417850E-02
(PID.TID 0000.0001) %MON forcing_empmr_mean           =  -8.8990075422185E-06
(PID.TID 0000.0001) %MON forcing_empmr_sd             =   3.9305791066560E-04
(PID.TID 0000.0001) %MON forcing_empmr_del2           =   2.4543993326582E-06
(PID.TID 0000.0001) %MON forcing_fu_max               =   8.8717776536941E-01
(PID.TID 0000.0001) %MON forcing_fu_min               =  -6.7358739701375E-01
(PID.TID 0000.0001) %MON forcing_fu_mean              =   9.6633476887154E-03
(PID.TID 0000.0001) %MON forcing_fu_sd                =   9.8290958015421E-02
(PID.TID 0000.0001) %MON forcing_fu_del2              =   1.3523906558847E-04
(PID.TID 0000.0001) %MON forcing_fv_max               =   9.6561425924301E-01
(PID.TID 0000.0001) %MON forcing_fv_min               =  -8.1762587794881E-01
(PID.TID 0000.0001) %MON forcing_fv_mean              =  -1.0804357543477E-02
(PID.TID 0000.0001) %MON forcing_fv_sd                =   1.0021290113154E-01
(PID.TID 0000.0001) %MON forcing_fv_del2              =   1.1365704085424E-04
(PID.TID 0000.0001) %MON trAdv_CFL_u_max              =   2.4455892546010E-02
(PID.TID 0000.0001) %MON trAdv_CFL_v_max              =   2.6071968469103E-02
(PID.TID 0000.0001) %MON trAdv_CFL_w_max              =   1.6088958487480E-01
(PID.TID 0000.0001) %MON advcfl_uvel_max              =   2.4119166881858E-02
(PID.TID 0000.0001) %MON advcfl_vvel_max              =   2.6071353361970E-02
(PID.TID 0000.0001) %MON advcfl_wvel_max              =   1.6744818126044E-01
(PID.TID 0000.0001) %MON advcfl_W_hf_max              =   1.7489032264979E-01
(PID.TID 0000.0001) %MON pe_b_mean                    =   6.3428102900588E-04
(PID.TID 0000.0001) %MON ke_max                       =   1.3529006168816E+00
(PID.TID 0000.0001) %MON ke_mean                      =   1.1789910447045E-03
(PID.TID 0000.0001) %MON ke_vol                       =   1.3350064351420E+18
(PID.TID 0000.0001) %MON vort_r_min                   =  -4.8590144273444E-05
(PID.TID 0000.0001) %MON vort_r_max                   =   4.7569030415434E-05
(PID.TID 0000.0001) %MON vort_a_mean                  =  -1.9725213241026E-05
(PID.TID 0000.0001) %MON vort_a_sd                    =   7.4541633887522E-05
(PID.TID 0000.0001) %MON vort_p_mean                  =  -2.1669263470803E-05
(PID.TID 0000.0001) %MON vort_p_sd                    =   9.3622880699075E-05
(PID.TID 0000.0001) %MON surfExpan_theta_mean         =  -1.0031196486083E-05
(PID.TID 0000.0001) %MON surfExpan_salt_mean          =  -3.1910174296373E-08
(PID.TID 0000.0001) // =======================================================
(PID.TID 0000.0001) // End MONITOR dynamic field statistics
(PID.TID 0000.0001) // =======================================================
 cg2d: Sum(rhs),rhsMax =   2.64664056054855E+01  3.00695845950667E+00
 cg2d: Sum(rhs),rhsMax =   2.61800618037396E+01  3.01538424851590E+00
 cg2d: Sum(rhs),rhsMax =   2.59028504419089E+01  3.02233944296432E+00
 cg2d: Sum(rhs),rhsMax =   2.56348665008916E+01  3.02773958605502E+00
 cg2d: Sum(rhs),rhsMax =   2.53782089125225E+01  3.03182860806533E+00
 cg2d: Sum(rhs),rhsMax =   2.51322475961508E+01  3.03504648309559E+00
 cg2d: Sum(rhs),rhsMax =   2.48937028519870E+01  3.03796042071623E+00
 cg2d: Sum(rhs),rhsMax =   2.46570109411484E+01  3.04087147093384E+00
(PID.TID 0000.0001)      cg2d_init_res =   6.67395061846186E-01
(PID.TID 0000.0001)      cg2d_iters(min,last) =      -1      23
(PID.TID 0000.0001)      cg2d_last_res =   6.15679572541085E-06
(PID.TID 0000.0001) // =======================================================
(PID.TID 0000.0001) // Begin MONITOR dynamic field statistics
(PID.TID 0000.0001) // =======================================================
(PID.TID 0000.0001) %MON time_tsnumber                =                    96
(PID.TID 0000.0001) %MON time_secondsf                =   8.6400000000000E+04
(PID.TID 0000.0001) %MON dynstat_eta_max              =   1.1126116097434E+00
(PID.TID 0000.0001) %MON dynstat_eta_min              =  -3.0577879889867E+00
(PID.TID 0000.0001) %MON dynstat_eta_mean             =  -8.5385482060531E-04
(PID.TID 0000.0001) %MON dynstat_eta_sd               =   6.8919126982806E-01
(PID.TID 0000.0001) %MON dynstat_eta_del2             =   1.6071077375370E-04
(PID.TID 0000.0001) %MON dynstat_uvel_max             =   1.5581670907678E+00
(PID.TID 0000.0001) %MON dynstat_uvel_min             =  -1.5167125091364E+00
(PID.TID 0000.0001) %MON dynstat_uvel_mean            =   8.0778434166939E-04
(PID.TID 0000.0001) %MON dynstat_uvel_sd              =   3.4478264699491E-02
(PID.TID 0000.0001) %MON dynstat_uvel_del2            =   6.9129972011686E-05
(PID.TID 0000.0001) %MON dynstat_vvel_max             =   1.4619125884206E+00
(PID.TID 0000.0001) %MON dynstat_vvel_min             =  -1.1268133297898E+00
(PID.TID 0000.0001) %MON dynstat_vvel_mean            =   1.5470082735548E-03
(PID.TID 0000.0001) %MON dynstat_vvel_sd              =   3.6020147569921E-02
(PID.TID 0000.0001) %MON dynstat_vvel_del2            =   7.1892763972576E-05
(PID.TID 0000.0001) %MON dynstat_wvel_max             =   9.2631054180700E-03
(PID.TID 0000.0001) %MON dynstat_wvel_min             =  -1.0608031146760E-02
(PID.TID 0000.0001) %MON dynstat_wvel_mean            =   1.8159417886207E-21
(PID.TID 0000.0001) %MON dynstat_wvel_sd              =   4.1562135000802E-04
(PID.TID 0000.0001) %MON dynstat_wvel_del2            =   9.0727608534949E-07
(PID.TID 0000.0001) %MON dynstat_theta_max            =   3.2575597057384E+01
(PID.TID 0000.0001) %MON dynstat_theta_min            =  -2.3592089765934E+00
(PID.TID 0000.0001) %MON dynstat_theta_mean           =   3.5903587820798E+00
(PID.TID 0000.0001) %MON dynstat_theta_sd             =   4.4237719698302E+00
(PID.TID 0000.0001) %MON dynstat_theta_del2           =   2.2764257654571E-04
(PID.TID 0000.0001) %MON dynstat_salt_max             =   4.0711484323704E+01
(PID.TID 0000.0001) %MON dynstat_salt_min             =   1.7572957538961E+01
(PID.TID 0000.0001) %MON dynstat_salt_mean            =   3.4725438464619E+01
(PID.TID 0000.0001) %MON dynstat_salt_sd              =   3.6769051346679E-01
(PID.TID 0000.0001) %MON dynstat_salt_del2            =   9.3319885702054E-05
(PID.TID 0000.0001) %MON dynstat_sst_max              =   3.2556063193232E+01
(PID.TID 0000.0001) %MON dynstat_sst_min              =  -2.3592089765934E+00
(PID.TID 0000.0001) %MON dynstat_sst_mean             =   1.8263007569860E+01
(PID.TID 0000.0001) %MON dynstat_sst_sd               =   1.0227437272798E+01
(PID.TID 0000.0001) %MON dynstat_sst_del2             =   2.0023559309122E-03
(PID.TID 0000.0001) %MON dynstat_sss_max              =   3.9182486369737E+01
(PID.TID 0000.0001) %MON dynstat_sss_min              =   1.7572957538961E+01
(PID.TID 0000.0001) %MON dynstat_sss_mean             =   3.4778828221010E+01
(PID.TID 0000.0001) %MON dynstat_sss_sd               =   9.8252531738428E-01
(PID.TID 0000.0001) %MON dynstat_sss_del2             =   1.5758685292161E-03
(PID.TID 0000.0001) %MON forcing_qnet_max             =   5.2262900763084E+03
(PID.TID 0000.0001) %MON forcing_qnet_min             =  -1.3696508905388E+03
(PID.TID 0000.0001) %MON forcing_qnet_mean            =  -3.5186110103378E+01
(PID.TID 0000.0001) %MON forcing_qnet_sd              =   2.3531888308067E+02
(PID.TID 0000.0001) %MON forcing_qnet_del2            =   6.3139736024397E-01
(PID.TID 0000.0001) %MON forcing_qsw_max              =   0.0000000000000E+00
(PID.TID 0000.0001) %MON forcing_qsw_min              =  -5.3625824852303E+02
(PID.TID 0000.0001) %MON forcing_qsw_mean             =  -1.0843799166939E+02
(PID.TID 0000.0001) %MON forcing_qsw_sd               =   1.5131900674979E+02
(PID.TID 0000.0001) %MON forcing_qsw_del2             =   2.4969004922702E-01
(PID.TID 0000.0001) %MON forcing_empmr_max            =   4.6439617872238E-03
(PID.TID 0000.0001) %MON forcing_empmr_min            =  -8.2517653703690E-02
(PID.TID 0000.0001) %MON forcing_empmr_mean           =  -8.4328777727654E-06
(PID.TID 0000.0001) %MON forcing_empmr_sd             =   3.3684408375838E-04
(PID.TID 0000.0001) %MON forcing_empmr_del2           =   2.0656132842522E-06
(PID.TID 0000.0001) %MON forcing_fu_max               =   8.8310021162033E-01
(PID.TID 0000.0001) %MON forcing_fu_min               =  -6.9441397913474E-01
(PID.TID 0000.0001) %MON forcing_fu_mean              =   9.2479250829012E-03
(PID.TID 0000.0001) %MON forcing_fu_sd                =   9.7320983433663E-02
(PID.TID 0000.0001) %MON forcing_fu_del2              =   1.3294910805565E-04
(PID.TID 0000.0001) %MON forcing_fv_max               =   9.8458629846573E-01
(PID.TID 0000.0001) %MON forcing_fv_min               =  -7.9953456209338E-01
(PID.TID 0000.0001) %MON forcing_fv_mean              =  -1.0957499607631E-02
(PID.TID 0000.0001) %MON forcing_fv_sd                =   9.9321570168110E-02
(PID.TID 0000.0001) %MON forcing_fv_del2              =   1.1385364745740E-04
(PID.TID 0000.0001) %MON trAdv_CFL_u_max              =   2.5377720034889E-02
(PID.TID 0000.0001) %MON trAdv_CFL_v_max              =   2.5950882512020E-02
(PID.TID 0000.0001) %MON trAdv_CFL_w_max              =   1.4267300824276E-01
(PID.TID 0000.0001) %MON advcfl_uvel_max              =   2.5093880239896E-02
(PID.TID 0000.0001) %MON advcfl_vvel_max              =   2.5950270261626E-02
(PID.TID 0000.0001) %MON advcfl_wvel_max              =   1.4815492793783E-01
(PID.TID 0000.0001) %MON advcfl_W_hf_max              =   1.5489751319656E-01
(PID.TID 0000.0001) %MON pe_b_mean                    =   6.2479233884819E-04
(PID.TID 0000.0001) %MON ke_max                       =   1.3454450714772E+00
(PID.TID 0000.0001) %MON ke_mean                      =   1.2003008942351E-03
(PID.TID 0000.0001) %MON ke_vol                       =   1.3350064351420E+18
(PID.TID 0000.0001) %MON vort_r_min                   =  -5.0476319348364E-05
(PID.TID 0000.0001) %MON vort_r_max                   =   4.8875657668587E-05
(PID.TID 0000.0001) %MON vort_a_mean                  =  -1.9725213241026E-05
(PID.TID 0000.0001) %MON vort_a_sd                    =   7.4541498578099E-05
(PID.TID 0000.0001) %MON vort_p_mean                  =  -2.1669263470803E-05
(PID.TID 0000.0001) %MON vort_p_sd                    =   9.3623263430058E-05
(PID.TID 0000.0001) %MON surfExpan_theta_mean         =  -8.6237563137690E-06
(PID.TID 0000.0001) %MON surfExpan_salt_mean          =  -1.0574864776739E-07
(PID.TID 0000.0001) // =======================================================
(PID.TID 0000.0001) // End MONITOR dynamic field statistics
(PID.TID 0000.0001) // =======================================================
(PID.TID 0000.0001) %CHECKPOINT        96 ckptA
 cg2d: Sum(rhs),rhsMax =   2.44151115463887E+01  3.04397479494810E+00
(PID.TID 0000.0001) %CHECKPOINT        97 ckptB
