(PID.TID 0000.0001) 
(PID.TID 0000.0001) // ======================================================
(PID.TID 0000.0001) //                      MITgcm UV
(PID.TID 0000.0001) //                      =========
(PID.TID 0000.0001) // ======================================================
(PID.TID 0000.0001) // execution environment starting up...
(PID.TID 0000.0001) 
(PID.TID 0000.0001) // MITgcmUV version:  checkpoint67f
(PID.TID 0000.0001) // Build user:        estrobac
(PID.TID 0000.0001) // Build host:        discover31
(PID.TID 0000.0001) // Build date:        Fri Dec 14 17:48:33 EST 2018
(PID.TID 0000.0001) 
(PID.TID 0000.0001) // =======================================================
(PID.TID 0000.0001) // Execution Environment parameter file "eedata"
(PID.TID 0000.0001) // =======================================================
(PID.TID 0000.0001) ># Example "eedata" file
(PID.TID 0000.0001) ># Lines beginning "#" are comments
(PID.TID 0000.0001) ># nTx - No. threads per process in X
(PID.TID 0000.0001) ># nTy - No. threads per process in Y
(PID.TID 0000.0001) > &EEPARMS
(PID.TID 0000.0001) > useCubedSphereExchange=.TRUE.,
(PID.TID 0000.0001) > nTx=1,
(PID.TID 0000.0001) > nTy=1,
(PID.TID 0000.0001) >#debugMode=.TRUE.,
(PID.TID 0000.0001) > &
(PID.TID 0000.0001) ># Note: Some systems use & as the namelist terminator (as shown here).
(PID.TID 0000.0001) >#       Other systems use a / character.
(PID.TID 0000.0001) 
(PID.TID 0000.0001) // =======================================================
(PID.TID 0000.0001) // Computational Grid Specification ( see files "SIZE.h" )
(PID.TID 0000.0001) //                                  ( and "eedata"       )
(PID.TID 0000.0001) // =======================================================
(PID.TID 0000.0001)      nPx =  360 ; /* No. processes in X */
(PID.TID 0000.0001)      nPy =    1 ; /* No. processes in Y */
(PID.TID 0000.0001)      nSx =    1 ; /* No. tiles in X per process */
(PID.TID 0000.0001)      nSy =    1 ; /* No. tiles in Y per process */
(PID.TID 0000.0001)      sNx =   15 ; /* Tile size in X */
(PID.TID 0000.0001)      sNy =   15 ; /* Tile size in Y */
(PID.TID 0000.0001)      OLx =    4 ; /* Tile overlap distance in X */
(PID.TID 0000.0001)      OLy =    4 ; /* Tile overlap distance in Y */
(PID.TID 0000.0001)      nTx =    1 ; /* No. threads in X per process */
(PID.TID 0000.0001)      nTy =    1 ; /* No. threads in Y per process */
(PID.TID 0000.0001)       Nr =   50 ; /* No. levels in the vertical   */
(PID.TID 0000.0001)       Nx = 5400 ; /* Total domain size in X ( = nPx*nSx*sNx ) */
(PID.TID 0000.0001)       Ny =   15 ; /* Total domain size in Y ( = nPy*nSy*sNy ) */
(PID.TID 0000.0001)   nTiles =    1 ; /* Total no. tiles per process ( = nSx*nSy ) */
(PID.TID 0000.0001)   nProcs =  360 ; /* Total no. processes ( = nPx*nPy ) */
(PID.TID 0000.0001) nThreads =    1 ; /* Total no. threads per process ( = nTx*nTy ) */
(PID.TID 0000.0001) usingMPI =    T ; /* Flag used to control whether MPI is in use */
(PID.TID 0000.0001)                   /*  note: To execute a program with MPI calls */
(PID.TID 0000.0001)                   /*  it must be launched appropriately e.g     */
(PID.TID 0000.0001)                   /*  "mpirun -np 64 ......"                    */
(PID.TID 0000.0001) useCoupler=    F ;/* Flag used to control communications with   */
(PID.TID 0000.0001)                   /*  other model components, through a coupler */
(PID.TID 0000.0001) useNest2W_parent =    F ;/* Control 2-W Nesting comm */
(PID.TID 0000.0001) useNest2W_child  =    F ;/* Control 2-W Nesting comm */
(PID.TID 0000.0001) debugMode =    F ; /* print debug msg. (sequence of S/R calls)  */
(PID.TID 0000.0001) printMapIncludesZeros=    F ; /* print zeros in Std.Output maps */
(PID.TID 0000.0001) maxLengthPrt1D=   65 /* maxLength of 1D array printed to StdOut */
(PID.TID 0000.0001) 
(PID.TID 0000.0001) ======= Starting MPI parallel Run =========
(PID.TID 0000.0001)  My Processor Name (len:  8 ) = borgr052
(PID.TID 0000.0001)  Located at (  0,  0) on processor grid (0:359,0:  0)
(PID.TID 0000.0001)  Origin at  (     1,     1) on global grid (1:  5400,1:    15)
(PID.TID 0000.0001)  North neighbor = processor 0000
(PID.TID 0000.0001)  South neighbor = processor 0000
(PID.TID 0000.0001)   East neighbor = processor 0001
(PID.TID 0000.0001)   West neighbor = processor 0359
(PID.TID 0000.0001) // ======================================================
(PID.TID 0000.0001) // Mapping of tiles to threads
(PID.TID 0000.0001) // ======================================================
(PID.TID 0000.0001) // -o- Thread   1, tiles (   1:   1,   1:   1)
(PID.TID 0000.0001) 
(PID.TID 0000.0001) W2_READPARMS: opening data.exch2
(PID.TID 0000.0001)  OPEN_COPY_DATA_FILE: opening file data.exch2
(PID.TID 0000.0001) // =======================================================
(PID.TID 0000.0001) // Parameter file "data.exch2"
(PID.TID 0000.0001) // =======================================================
(PID.TID 0000.0001) ># EXCH2 Package: Wrapper-2 User Choice
(PID.TID 0000.0001) >#--------------------
(PID.TID 0000.0001) >#  preDefTopol   :: pre-defined Topology selector:
(PID.TID 0000.0001) >#                :: = 0 : topology defined from processing "data.exch2";
(PID.TID 0000.0001) >#                :: = 1 : simple, single facet topology;
(PID.TID 0000.0001) >#                :: = 2 : customized topology (w2_set_myown_facets)
(PID.TID 0000.0001) >#                :: = 3 : 6-facet Cube (3 face-dims: nRed, nGreen, nBlue).
(PID.TID 0000.0001) >#  dimsFacets    :: facet pair of dimensions (n1x,n1y, n2x,n2y ...)
(PID.TID 0000.0001) >#  facetEdgeLink :: Face-Edge connectivity map:
(PID.TID 0000.0001) >#    facetEdgeLink(i,j)=XX.1 : face(j)-edge(i) (i=1,2,3,4 <==> N,S,E,W)
(PID.TID 0000.0001) >#    is connected to Northern edge of face "XX" ; similarly,
(PID.TID 0000.0001) >#    = XX.2 : to Southern.E, XX.3 = Eastern.E, XX.4 = Western.E of face "XX"
(PID.TID 0000.0001) >#  blankList     :: List of "blank" tiles
(PID.TID 0000.0001) >#  W2_mapIO      :: global map IO selector (-1 = old type ; 0 = 1 long line in X
(PID.TID 0000.0001) >#                :: 1 = compact, mostly in Y dir)
(PID.TID 0000.0001) >#  W2_printMsg   :: option for information messages printing
(PID.TID 0000.0001) >#                :: <0 : write to log file ; =0 : minimum print ;
(PID.TID 0000.0001) >#                :: =1 : no duplicated print ; =2 : all processes do print
(PID.TID 0000.0001) >#--------------------
(PID.TID 0000.0001) > &W2_EXCH2_PARM01
(PID.TID 0000.0001) ># W2_printMsg= 0,
(PID.TID 0000.0001) >  W2_mapIO   = 1,
(PID.TID 0000.0001) >#
(PID.TID 0000.0001) >  preDefTopol=0,
(PID.TID 0000.0001) >#-- 5 facets llc_120 topology (drop facet 6 and its connection):
(PID.TID 0000.0001) >  dimsFacets(1:10) = 90, 270, 90, 270, 90, 90, 270, 90, 270, 90,
(PID.TID 0000.0001) >  facetEdgeLink(1:4,1)= 3.4, 0. , 2.4, 5.1,
(PID.TID 0000.0001) >  facetEdgeLink(1:4,2)= 3.2, 0. , 4.2, 1.3,
(PID.TID 0000.0001) >  facetEdgeLink(1:4,3)= 5.4, 2.1, 4.4, 1.1,
(PID.TID 0000.0001) >  facetEdgeLink(1:4,4)= 5.2, 2.3, 0. , 3.3,
(PID.TID 0000.0001) >  facetEdgeLink(1:4,5)= 1.4, 4.1, 0. , 3.1,
(PID.TID 0000.0001) >#-- full 6 facets llc_120 topology (equivalent to default preDefTopol=3):
(PID.TID 0000.0001) ># dimsFacets(1:12) = 120, 360, 120, 360, 120, 120, 360, 120, 360, 120, 120, 120,
(PID.TID 0000.0001) ># facetEdgeLink(1:4,1)= 3.4, 6.1, 2.4, 5.1,
(PID.TID 0000.0001) ># facetEdgeLink(1:4,2)= 3.2, 6.3, 4.2, 1.3,
(PID.TID 0000.0001) ># facetEdgeLink(1:4,3)= 5.4, 2.1, 4.4, 1.1,
(PID.TID 0000.0001) ># facetEdgeLink(1:4,4)= 5.2, 2.3, 6.2, 3.3,
(PID.TID 0000.0001) ># facetEdgeLink(1:4,5)= 1.4, 4.1, 6.4, 3.1,
(PID.TID 0000.0001) ># facetEdgeLink(1:4,6)= 1.2, 4.3, 2.2, 5.3,
(PID.TID 0000.0001) >#
(PID.TID 0000.0001) >#90x30   nprocs = 36
(PID.TID 0000.0001) ># blankList(1:3)=1,10,11,
(PID.TID 0000.0001) >#30x90
(PID.TID 0000.0001) >#
(PID.TID 0000.0001) >#45x30   nprocs = 72
(PID.TID 0000.0001) ># blankList(1:6)=1,2,19,20,21,22
(PID.TID 0000.0001) >#30x45   nprocs = 68
(PID.TID 0000.0001) ># blankList(1:10)=2,3,19,20,21,35,51,60,69,78
(PID.TID 0000.0001) >#45x45   nprocs = 48
(PID.TID 0000.0001) ># blankList(1:4)=2,13,14,23
(PID.TID 0000.0001) >#30x30   nprocs = 96
(PID.TID 0000.0001) ># blankList(1:21)=1,2,3,5,6,28,29,30,31,32,33,49,50,52,53,72,81,90,99,108,117
(PID.TID 0000.0001) >#30x30   nprocs = 112
(PID.TID 0000.0001) ># blankList(1:5)=2,3,28,29,30
(PID.TID 0000.0001) >#15x30   nprocs = 192
(PID.TID 0000.0001) ># blankList(1:42)=1,2,3,4,5,6,9,10,11,12,55,56,57,58,59,60,61,62,63,64,65,66,
(PID.TID 0000.0001) >#            97,98,99,100,103,104,105,106,143,144,
(PID.TID 0000.0001) >#            161,162,179,180,197,198,215,216,233,234
(PID.TID 0000.0001) >#15x15   nprocs = 360
(PID.TID 0000.0001) > blankList(1:108)=1,2,3,4,5,6,7,8,9,10,11,12,14,15,16,17,18,21,22,23,24,
(PID.TID 0000.0001) >  65,71,75,76,90,95,96,101,102,109,110,111,112,113,114,115,116,117,118,119,
(PID.TID 0000.0001) >  120,121,122,123,124,125,126,127,128,129,130,131,132,
(PID.TID 0000.0001) >  188,189,190,193,194,195,196,199,
(PID.TID 0000.0001) >  200,201,202,203,205,206,207,208,209,211,212,213,214,215,216,242,247,253,
(PID.TID 0000.0001) >  267,268,269,270,287,288,305,306,323,324,341,342,359,360,362,376,377,378,
(PID.TID 0000.0001) >  380,381,382,395,396,400,412,413,414,430,
(PID.TID 0000.0001) >#note: it seems that 8 of the followig 9 tiles could be added to 15x15 blank
(PID.TID 0000.0001) >#  list to reach 352=22*16 cores : 431 432 440 441 448 449 450 467 468
(PID.TID 0000.0001) > &
(PID.TID 0000.0001) 
(PID.TID 0000.0001) W2_READPARMS: finished reading data.exch2
(PID.TID 0000.0001) W2_useE2ioLayOut=    T ;/* T: use Exch2 glob IO map; F: use model default */
(PID.TID 0000.0001) W2_mapIO        =   1 ; /* select option for Exch2 global-IO map */
(PID.TID 0000.0001) W2_printMsg     =  -1 ; /* select option for printing information */
(PID.TID 0000.0001) ===== Start setting W2 TOPOLOGY:
(PID.TID 0000.0001)  write to log-file: w2_tile_topology.0000.log
(PID.TID 0000.0001) =====       setting W2 TOPOLOGY: Done
(PID.TID 0000.0001) 
(PID.TID 0000.0001)  INI_PARMS: opening model parameter file "data"
(PID.TID 0000.0001)  OPEN_COPY_DATA_FILE: opening file data
(PID.TID 0000.0001) // =======================================================
(PID.TID 0000.0001) // Parameter file "data"
(PID.TID 0000.0001) // =======================================================
(PID.TID 0000.0001) ># ====================
(PID.TID 0000.0001) ># | Model parameters |
(PID.TID 0000.0001) ># ====================
(PID.TID 0000.0001) >#
(PID.TID 0000.0001) ># Continuous equation parameters
(PID.TID 0000.0001) > &PARM01
(PID.TID 0000.0001) > tRef               = 3*23.,3*22.,21.,2*20.,19.,2*18.,17.,2*16.,15.,14.,13.,
(PID.TID 0000.0001) >                      12.,11.,2*9.,8.,7.,2*6.,2*5.,3*4.,3*3.,4*2.,12*1.,
(PID.TID 0000.0001) > sRef               = 50*34.5,
(PID.TID 0000.0001) > viscAr= 5.6614e-04,
(PID.TID 0000.0001) > no_slip_sides = .FALSE.,
(PID.TID 0000.0001) > no_slip_bottom = .TRUE.,
(PID.TID 0000.0001) > diffKrT=5.44e-7,
(PID.TID 0000.0001) > diffKrS=5.44e-7,
(PID.TID 0000.0001) > rhonil=1027.5,
(PID.TID 0000.0001) > rhoConstFresh=999.8,
(PID.TID 0000.0001) > eosType='JMD95Z',
(PID.TID 0000.0001) > hFacMin=0.3,
(PID.TID 0000.0001) > hFacInf=0.1,
(PID.TID 0000.0001) > hFacSup=5.,
(PID.TID 0000.0001) > implicitDiffusion=.TRUE.,
(PID.TID 0000.0001) > implicitViscosity=.TRUE.,
(PID.TID 0000.0001) > viscC4Leith=2.0,
(PID.TID 0000.0001) > viscC4Leithd=2.0,
(PID.TID 0000.0001) > useAreaViscLength=.TRUE.,
(PID.TID 0000.0001) > sideDragFactor=0.,
(PID.TID 0000.0001) > highOrderVorticity  = .TRUE.,
(PID.TID 0000.0001) > bottomDragQuadratic = 0.0021,
(PID.TID 0000.0001) > tempAdvScheme=77,
(PID.TID 0000.0001) > saltAdvScheme=77,
(PID.TID 0000.0001) > StaggerTimeStep=.TRUE.,
(PID.TID 0000.0001) > multiDimAdvection=.TRUE.,
(PID.TID 0000.0001) > vectorInvariantMomentum=.TRUE.,
(PID.TID 0000.0001) > implicitFreeSurface=.TRUE.,
(PID.TID 0000.0001) > exactConserv=.TRUE.,
(PID.TID 0000.0001) > debuglevel=-1,
(PID.TID 0000.0001) > convertFW2Salt=-1
(PID.TID 0000.0001) > useRealFreshWaterFlux=.TRUE.,
(PID.TID 0000.0001) > useSingleCPUio=.TRUE.,
(PID.TID 0000.0001) > globalFiles=.TRUE.,
(PID.TID 0000.0001) > readBinaryPrec=32,
(PID.TID 0000.0001) > writeBinaryPrec=32,
(PID.TID 0000.0001) > temp_EvPrRn=0.,
(PID.TID 0000.0001) > &
(PID.TID 0000.0001) >
(PID.TID 0000.0001) ># Elliptic solver parameters
(PID.TID 0000.0001) > &PARM02
(PID.TID 0000.0001) > cg2dMaxIters = 100,
(PID.TID 0000.0001) > cg2dTargetResidual = 1.E-5,
(PID.TID 0000.0001) > &
(PID.TID 0000.0001) >
(PID.TID 0000.0001) ># Time stepping parameters
(PID.TID 0000.0001) > &PARM03
(PID.TID 0000.0001) > nIter0=174588,
(PID.TID 0000.0001) > nTimeSteps       = 384,
(PID.TID 0000.0001) > deltaT = 450.,
(PID.TID 0000.0001) > abEps = 0.1,
(PID.TID 0000.0001) > forcing_In_AB=.FALSE.,
(PID.TID 0000.0001) > momDissip_In_AB=.FALSE.,
(PID.TID 0000.0001) > pChkptFreq        = 172800.0,
(PID.TID 0000.0001) > chkptFreq        = 172800.0,
(PID.TID 0000.0001) > dumpfreq = 3600.,
(PID.TID 0000.0001) > monitorFreq = 60.,
(PID.TID 0000.0001) > dumpInitAndLast=.TRUE.,
(PID.TID 0000.0001) > &
(PID.TID 0000.0001) >
(PID.TID 0000.0001) ># Gridding parameters
(PID.TID 0000.0001) > &PARM04
(PID.TID 0000.0001) > usingCurvilinearGrid=.TRUE.,
(PID.TID 0000.0001) > delR =
(PID.TID 0000.0001) >     10.00, 10.00, 10.00, 10.00, 10.00, 10.00, 10.00, 10.01,
(PID.TID 0000.0001) >     10.03, 10.11, 10.32, 10.80, 11.76, 13.42, 16.04, 19.82, 24.85,
(PID.TID 0000.0001) >     31.10, 38.42, 46.50, 55.00, 63.50, 71.58, 78.90, 85.15, 90.18,
(PID.TID 0000.0001) >     93.96, 96.58, 98.25, 99.25,100.01,101.33,104.56,111.33,122.83,
(PID.TID 0000.0001) >     139.09,158.94,180.83,203.55,226.50,249.50,272.50,295.50,318.50,
(PID.TID 0000.0001) >     341.50,364.50,387.50,410.50,433.50,456.50,
(PID.TID 0000.0001) > &
(PID.TID 0000.0001) >
(PID.TID 0000.0001) ># Input datasets
(PID.TID 0000.0001) > &PARM05
(PID.TID 0000.0001) > bathyFile      ='bathy.bin',
(PID.TID 0000.0001) > pLoadFile      ='pLoad.data'
(PID.TID 0000.0001) > &
(PID.TID 0000.0001) 
(PID.TID 0000.0001)  INI_PARMS ; starts to read PARM01
(PID.TID 0000.0001)  INI_PARMS ; read PARM01 : OK
(PID.TID 0000.0001)  INI_PARMS ; starts to read PARM02
(PID.TID 0000.0001)  INI_PARMS ; read PARM02 : OK
(PID.TID 0000.0001)  INI_PARMS ; starts to read PARM03
(PID.TID 0000.0001)  INI_PARMS ; read PARM03 : OK
(PID.TID 0000.0001)  INI_PARMS ; starts to read PARM04
(PID.TID 0000.0001)  INI_PARMS ; read PARM04 : OK
(PID.TID 0000.0001)  INI_PARMS ; starts to read PARM05
(PID.TID 0000.0001)  INI_PARMS ; read PARM05 : OK
(PID.TID 0000.0001)  INI_PARMS: finished reading file "data"
(PID.TID 0000.0001)  PACKAGES_BOOT: opening data.pkg
(PID.TID 0000.0001)  OPEN_COPY_DATA_FILE: opening file data.pkg
(PID.TID 0000.0001) // =======================================================
(PID.TID 0000.0001) // Parameter file "data.pkg"
(PID.TID 0000.0001) // =======================================================
(PID.TID 0000.0001) ># Packages
(PID.TID 0000.0001) > &PACKAGES
(PID.TID 0000.0001) > useCAL         = .TRUE.,
(PID.TID 0000.0001) > useEXF         = .FALSE.,
(PID.TID 0000.0001) > useSEAICE      = .TRUE.,
(PID.TID 0000.0001) > useKPP         = .TRUE.,
(PID.TID 0000.0001) ># useGMRedi      = .TRUE.,
(PID.TID 0000.0001) > useFRAZIL      = .FALSE.,
(PID.TID 0000.0001) > useDiagnostics     = .TRUE.,
(PID.TID 0000.0001) > &
(PID.TID 0000.0001) 
(PID.TID 0000.0001)  PACKAGES_BOOT: finished reading data.pkg
(PID.TID 0000.0001)  PACKAGES_BOOT: On/Off package Summary
 --------  pkgs with a standard "usePKG" On/Off switch in "data.pkg":  --------
 pkg/kpp                  compiled   and   used ( useKPP                   = T )
 pkg/cal                  compiled   and   used ( useCAL                   = T )
 pkg/frazil               compiled but not used ( useFRAZIL                = F )
 pkg/seaice               compiled   and   used ( useSEAICE                = T )
 pkg/diagnostics          compiled   and   used ( useDiagnostics           = T )
 -------- pkgs without standard "usePKG" On/Off switch in "data.pkg":  --------
 pkg/generic_advdiff      compiled   and   used ( useGAD                   = T )
 pkg/mom_common           compiled   and   used ( momStepping              = T )
 pkg/mom_vecinv           compiled   and   used ( +vectorInvariantMomentum = T )
 pkg/mom_fluxform         compiled but not used ( & not vectorInvariantMom = F )
 pkg/monitor              compiled   and   used ( monitorFreq > 0.         = T )
 pkg/timeave              compiled but not used ( taveFreq > 0.            = F )
 pkg/debug                compiled but not used ( debugMode                = F )
 pkg/exch2                compiled   and   used
 pkg/rw                   compiled   and   used
 pkg/mdsio                compiled   and   used
(PID.TID 0000.0001)  PACKAGES_BOOT: End of package Summary
(PID.TID 0000.0001) 
(PID.TID 0000.0001) CAL_READPARMS: opening data.cal
(PID.TID 0000.0001)  OPEN_COPY_DATA_FILE: opening file data.cal
(PID.TID 0000.0001) // =======================================================
(PID.TID 0000.0001) // Parameter file "data.cal"
(PID.TID 0000.0001) // =======================================================
(PID.TID 0000.0001) >#
(PID.TID 0000.0001) ># *******************
(PID.TID 0000.0001) ># Calendar Parameters
(PID.TID 0000.0001) ># *******************
(PID.TID 0000.0001) > &CAL_NML
(PID.TID 0000.0001) > TheCalendar='gregorian',
(PID.TID 0000.0001) > startDate_1=20120206,
(PID.TID 0000.0001) > startDate_2=210000,
(PID.TID 0000.0001) > calendarDumps = .TRUE.,
(PID.TID 0000.0001) > &
(PID.TID 0000.0001) 
(PID.TID 0000.0001) CAL_READPARMS: finished reading data.cal
(PID.TID 0000.0001)  KPP_READPARMS: opening data.kpp
(PID.TID 0000.0001)  OPEN_COPY_DATA_FILE: opening file data.kpp
(PID.TID 0000.0001) // =======================================================
(PID.TID 0000.0001) // Parameter file "data.kpp"
(PID.TID 0000.0001) // =======================================================
(PID.TID 0000.0001) ># KPP parameters
(PID.TID 0000.0001) > &KPP_PARM01
(PID.TID 0000.0001) > KPPmixingMaps   = .FALSE.,
(PID.TID 0000.0001) > KPPwriteState   = .FALSE.,
(PID.TID 0000.0001) > kpp_dumpFreq    = 0.,
(PID.TID 0000.0001) > kpp_tavefreq    = 0.,
(PID.TID 0000.0001) > Ricr            = 0.3559,
(PID.TID 0000.0001) > Riinfty         = 0.6998,
(PID.TID 0000.0001) > &
(PID.TID 0000.0001) >
(PID.TID 0000.0001) 
(PID.TID 0000.0001)  KPP_READPARMS ; starts to read KPP_PARM01
(PID.TID 0000.0001)  KPP_READPARMS ; read KPP_PARM01 : OK
(PID.TID 0000.0001)  KPP_READPARMS: finished reading data.kpp
(PID.TID 0000.0001) 
(PID.TID 0000.0001)  SEAICE_READPARMS: opening data.seaice
(PID.TID 0000.0001)  OPEN_COPY_DATA_FILE: opening file data.seaice
(PID.TID 0000.0001) // =======================================================
(PID.TID 0000.0001) // Parameter file "data.seaice"
(PID.TID 0000.0001) // =======================================================
(PID.TID 0000.0001) ># SEAICE parameters
(PID.TID 0000.0001) > &SEAICE_PARM01
(PID.TID 0000.0001) > usePW79thermodynamics= .FALSE.,
(PID.TID 0000.0001) ># SEAICEuseDYNAMICS = .FALSE.,
(PID.TID 0000.0001) ># SEAICEupdateOceanStress=.FALSE.,
(PID.TID 0000.0001) ># SEAICEadvHeff  = .FALSE.,
(PID.TID 0000.0001) ># SEAICEadvArea  = .FALSE.,
(PID.TID 0000.0001) ># SEAICEadvSnow  = .FALSE.,
(PID.TID 0000.0001) ># SEAICEadvSalt  = .FALSE.,
(PID.TID 0000.0001) >#--
(PID.TID 0000.0001) > SEAICE_strength    = 2.6780e+04,
(PID.TID 0000.0001) > OCEAN_drag         = 8.1541e-04,
(PID.TID 0000.0001) ># SEAICE_waterDrag   = 5.3508,
(PID.TID 0000.0001) >#- waterDrag no longer includes rhoConst factor:
(PID.TID 0000.0001) ># SEAICE_waterDrag   = 5.16985507246376811E-3,
(PID.TID 0000.0001) >  SEAICE_waterDrag   = 5.169855072463768E-3,
(PID.TID 0000.0001) >#- old defaults
(PID.TID 0000.0001) >  SEAICEscaleSurfStress = .FALSE.,
(PID.TID 0000.0001) >  SEAICEaddSnowMass     = .FALSE.,
(PID.TID 0000.0001) >  SEAICE_useMultDimSnow = .FALSE.,
(PID.TID 0000.0001) >  SEAICE_Olx = 0,
(PID.TID 0000.0001) >  SEAICE_Oly = 0,
(PID.TID 0000.0001) >  SEAICEetaZmethod = 0,
(PID.TID 0000.0001) >  SEAICE_drag = 2.E-3,
(PID.TID 0000.0001) >#--
(PID.TID 0000.0001) > SEAICE_no_Slip     = .FALSE.,
(PID.TID 0000.0001) > LSR_ERROR          = 1.E-4,
(PID.TID 0000.0001) > SEAICElinearIterMax=  500,
(PID.TID 0000.0001) >#LSR_mixIniGuess    = 1,
(PID.TID 0000.0001) > SEAICEadvScheme    = 77,
(PID.TID 0000.0001) ># AreaFile           = 'AREA.0000174588.data',
(PID.TID 0000.0001) ># HsnowFile          = 'HSNOW.0000174588.data',
(PID.TID 0000.0001) ># HsaltFile          = 'wt_ones.data',
(PID.TID 0000.0001) ># HeffFile           = 'HEFF.0000174588.data',
(PID.TID 0000.0001) ># UiceFile           = 'UICE.0000174588.data',
(PID.TID 0000.0001) ># ViceFile           = 'VICE.0000174588.data',
(PID.TID 0000.0001) > SEAICEwriteState   = .TRUE.,
(PID.TID 0000.0001) >#SEAICE_monFreq = 1800.,
(PID.TID 0000.0001) > &
(PID.TID 0000.0001) >
(PID.TID 0000.0001) > &SEAICE_PARM03
(PID.TID 0000.0001) > &
(PID.TID 0000.0001) 
(PID.TID 0000.0001)  SEAICE_READPARMS: finished reading data.seaice
(PID.TID 0000.0001)  DIAGNOSTICS_READPARMS: opening data.diagnostics
(PID.TID 0000.0001)  OPEN_COPY_DATA_FILE: opening file data.diagnostics
(PID.TID 0000.0001) // =======================================================
(PID.TID 0000.0001) // Parameter file "data.diagnostics"
(PID.TID 0000.0001) // =======================================================
(PID.TID 0000.0001) ># Diagnostic Package Choices
(PID.TID 0000.0001) >#--------------------
(PID.TID 0000.0001) >#  dumpAtLast (logical): always write output at the end of simulation (default=F)
(PID.TID 0000.0001) >#  diag_mnc   (logical): write to NetCDF files (default=useMNC)
(PID.TID 0000.0001) >#--for each output-stream:
(PID.TID 0000.0001) >#  fileName(n) : prefix of the output file name (max 80c long) for outp.stream n
(PID.TID 0000.0001) >#  frequency(n):< 0 : write snap-shot output every |frequency| seconds
(PID.TID 0000.0001) >#               > 0 : write time-average output every frequency seconds
(PID.TID 0000.0001) >#  timePhase(n)     : write at time = timePhase + multiple of |frequency|
(PID.TID 0000.0001) >#    averagingFreq  : frequency (in s) for periodic averaging interval
(PID.TID 0000.0001) >#    averagingPhase : phase     (in s) for periodic averaging interval
(PID.TID 0000.0001) >#    repeatCycle    : number of averaging intervals in 1 cycle
(PID.TID 0000.0001) >#  levels(:,n) : list of levels to write to file (Notes: declared as REAL)
(PID.TID 0000.0001) >#                when this entry is missing, select all common levels of this list
(PID.TID 0000.0001) >#  fields(:,n) : list of selected diagnostics fields (8.c) in outp.stream n
(PID.TID 0000.0001) >#                (see "available_diagnostics.log" file for the full list of diags)
(PID.TID 0000.0001) >#  missing_value(n) : missing value for real-type fields in output file "n"
(PID.TID 0000.0001) >#  fileFlags(n)     : specific code (8c string) for output file "n"
(PID.TID 0000.0001) >#--------------------
(PID.TID 0000.0001) ># oceTAUX  zonal surface wind stress, >0 increases uVel (N/m^2)
(PID.TID 0000.0001) ># oceTAUY  meridional surf. wind stress, >0 increases vVel (N/m^2)
(PID.TID 0000.0001) ># oceFWflx net surface Fresh-Water flux into ocean, >0 decreases salinity (kg/m^2/s)
(PID.TID 0000.0001) ># oceSflux net surface Salt flux into the ocean, >0 increases salinity (g/m^2/s)
(PID.TID 0000.0001) ># oceQnet  net surface heat flux into the ocean, >0 increases theta (W/m^2)
(PID.TID 0000.0001) ># oceQsw   net Short-Wave radiation (+=down), >0 increases theta (W/m^2)
(PID.TID 0000.0001) ># SSS      Sea Surface Salinity (g/kg)
(PID.TID 0000.0001) ># SST      Sea Surface Temperature (degC)
(PID.TID 0000.0001) ># UVEL1    Zonal Surface Velocity (m/s)
(PID.TID 0000.0001) ># VVEL1    Meridional Surface Velocity (m/s)
(PID.TID 0000.0001) >
(PID.TID 0000.0001) > &DIAGNOSTICS_LIST
(PID.TID 0000.0001) >
(PID.TID 0000.0001) > frequency(1)  = 3600.,
(PID.TID 0000.0001) >   fields(1:7,1)  = 'oceTAUX ','oceTAUY ','oceFWflx','oceSflux','oceQnet ','oceQsw  ','ETAN   ',
(PID.TID 0000.0001) >   filename(1)  = 'state_2d_set1',
(PID.TID 0000.0001) >   timePhase(1) =  0.,
(PID.TID 0000.0001) >
(PID.TID 0000.0001) > frequency(2)  = 3600.,
(PID.TID 0000.0001) >    fields(1:7,2)  = 'SALT    ','THETA   ','UVELMASS','VVELMASS','WVELMASS',
(PID.TID 0000.0001) >    filename(2)  = 'state_3d_set1',
(PID.TID 0000.0001) >    timePhase(2) =  0.,
(PID.TID 0000.0001) >
(PID.TID 0000.0001) > frequency(3)  = -3600.,
(PID.TID 0000.0001) >    fields(1:2,3)  = 'SALT    ','THETA   ',
(PID.TID 0000.0001) >    filename(3)  = 'snap_3d_set1',
(PID.TID 0000.0001) >    timePhase(3) =  0.,
(PID.TID 0000.0001) >
(PID.TID 0000.0001) > frequency(4)  = -3600.,
(PID.TID 0000.0001) >    fields(1,4)  = 'ETAN   ',
(PID.TID 0000.0001) >    filename(4)  = 'snap_2d_set2',
(PID.TID 0000.0001) >    timePhase(4) =  0.,
(PID.TID 0000.0001) >
(PID.TID 0000.0001) > frequency(5) = 3600.0,
(PID.TID 0000.0001) >    fields(1:8,5) = 'DFxE_TH ','DFyE_TH ','ADVx_TH ','ADVy_TH ',
(PID.TID 0000.0001) >                    'DFxE_SLT','DFyE_SLT','ADVx_SLT','ADVy_SLT',
(PID.TID 0000.0001) >    filename(5) = 'state_3d_set2',
(PID.TID 0000.0001) >    timePhase(5) =  0.,
(PID.TID 0000.0001) >
(PID.TID 0000.0001) > frequency(6) = 3600.0,
(PID.TID 0000.0001) >    fields(1:7,6) = 'ADVr_TH ','DFrE_TH ','DFrI_TH ',
(PID.TID 0000.0001) >                    'ADVr_SLT','DFrE_SLT','DFrI_SLT',
(PID.TID 0000.0001) >    filename(6) = 'state_3d_set4',
(PID.TID 0000.0001) >    timePhase(6) =  0.,
(PID.TID 0000.0001) >
(PID.TID 0000.0001) > frequency(7) =  3600.,
(PID.TID 0000.0001) >    fields(1:14,7)  = 'SIarea  ','SIheff  ','SIhsnow ','sIceLoad',
(PID.TID 0000.0001) >                   'SIuice  ','SIvice  ','SItaux  ','SItauy  ',
(PID.TID 0000.0001) >                   'ADVxHEFF','ADVyHEFF',
(PID.TID 0000.0001) >                   'ADVxAREA','ADVyAREA',
(PID.TID 0000.0001) >                   'ADVxSNOW','ADVySNOW',
(PID.TID 0000.0001) >    fileName(7) = 'iceDiag',
(PID.TID 0000.0001) >    missing_value(7) = -999.,
(PID.TID 0000.0001) >    timePhase(7) =  0.,
(PID.TID 0000.0001) >
(PID.TID 0000.0001) >
(PID.TID 0000.0001) >
(PID.TID 0000.0001) > frequency(8) = -3600.,
(PID.TID 0000.0001) >    fields(1:9,8)  = 'SIarea  ','SIheff  ','SIhsnow ','sIceLoad',
(PID.TID 0000.0001) >                   'SIuice  ','SIvice  ','SItaux  ','SItauy  ',
(PID.TID 0000.0001) >                   'CPLoWGHT',
(PID.TID 0000.0001) >    missing_value(8) = -999.,
(PID.TID 0000.0001) >#   fileName(8) = 'iceInst',
(PID.TID 0000.0001) >    timePhase(8) =  0.,
(PID.TID 0000.0001) >
(PID.TID 0000.0001) > frequency(9) = 3600.,
(PID.TID 0000.0001) >    fields(1:11,9) = 'SIareaN ','SIheffN ','SIhsnowN','SIqSnow ',
(PID.TID 0000.0001) >                   'SImeltPd','SItIces ','SIiceAge',
(PID.TID 0000.0001) >                   'SI_dArea','SI_dHeff','SI_dHsnw','SI_dQSnw',
(PID.TID 0000.0001) >#                  'SI_dMPnd',
(PID.TID 0000.0001) >#                  'SI_dTIce','SI_dIcAg',
(PID.TID 0000.0001) >    timePhase(9) = 0.,
(PID.TID 0000.0001) >    fileFlags(9) = 'D       ',
(PID.TID 0000.0001) >#   fileName(9) = 'iceNcat',
(PID.TID 0000.0001) >    timePhase(9) =  0.,
(PID.TID 0000.0001) >
(PID.TID 0000.0001) > frequency(10) = 3600.,
(PID.TID 0000.0001) >    fields(1:2,10)  = 'SIqIce  ',
(PID.TID 0000.0001) >                      'SI_dQIce',
(PID.TID 0000.0001) >    timePhase(10) =  0.,
(PID.TID 0000.0001) >#   fileName(10) = 'iceEnerg',
(PID.TID 0000.0001) >    timePhase(10) =  0.,
(PID.TID 0000.0001) >
(PID.TID 0000.0001) > frequency(11) = 3600.,
(PID.TID 0000.0001) >    fields(1:2,11)  = 'SIqSnow ',
(PID.TID 0000.0001) >                      'SI_dQSnw',
(PID.TID 0000.0001) >    timePhase(11) =  0.,
(PID.TID 0000.0001) >#   fileName(11) = 'snowEnerg',
(PID.TID 0000.0001) >   timePhase(11) =  0.,
(PID.TID 0000.0001) >
(PID.TID 0000.0001) > &
(PID.TID 0000.0001) >
(PID.TID 0000.0001) > &DIAG_STATIS_PARMS
(PID.TID 0000.0001) > stat_fields(1:6,1)  = 'ETAN    ', 'THETA   ','SALT    ','oceQnet ','oceFWflx','oceSflux',
(PID.TID 0000.0001) > stat_fName(1) = 'dynStDiag',
(PID.TID 0000.0001) > stat_freq(1)=  3600.0,
(PID.TID 0000.0001) > stat_phase(2) =  0.,
(PID.TID 0000.0001) >
(PID.TID 0000.0001) > stat_fields(1:21,2)  = 'SIarea  ','SIheff  ','SIhsnow ','sIceLoad',
(PID.TID 0000.0001) >                        'SIuice  ','SIvice  ','SItaux  ','SItauy  ',
(PID.TID 0000.0001) >                        'SIareaN ','SIheffN ','SIhsnowN',
(PID.TID 0000.0001) >                        'SIqSnow ','SIqIce  ','SImeltPd',
(PID.TID 0000.0001) >                        'SItIces ','SIiceAge',
(PID.TID 0000.0001) >                        'SI_dArea','SI_dHeff','SI_dHsnw',
(PID.TID 0000.0001) >                        'SI_dQSnw','SI_dQIce',
(PID.TID 0000.0001) >#                       'SI_dMPnd','SI_dTIce','SI_dIcAg',
(PID.TID 0000.0001) > stat_fName(2) = 'iceStDiag',
(PID.TID 0000.0001) > stat_freq(2) = 3600.,
(PID.TID 0000.0001) > stat_phase(2) =  0.,
(PID.TID 0000.0001) > &
(PID.TID 0000.0001) 
(PID.TID 0000.0001) S/R DIAGNOSTICS_READPARMS, read namelist "diagnostics_list": start
(PID.TID 0000.0001) S/R DIAGNOSTICS_READPARMS, read namelist "diagnostics_list": OK
(PID.TID 0000.0001) S/R DIAGNOSTICS_READPARMS, read namelist "DIAG_STATIS_PARMS": start
(PID.TID 0000.0001) S/R DIAGNOSTICS_READPARMS, read namelist "DIAG_STATIS_PARMS": OK
(PID.TID 0000.0001)  DIAGNOSTICS_READPARMS: global parameter summary:
(PID.TID 0000.0001)  dumpAtLast = /* always write time-ave diags at the end */
(PID.TID 0000.0001)                   F
(PID.TID 0000.0001)     ;
(PID.TID 0000.0001)  diag_mnc =   /* write NetCDF output files */
(PID.TID 0000.0001)                   F
(PID.TID 0000.0001)     ;
(PID.TID 0000.0001)  useMissingValue = /* put MissingValue where mask = 0 */
(PID.TID 0000.0001)                   F
(PID.TID 0000.0001)     ;
(PID.TID 0000.0001)  diagCG_maxIters = /* max number of iters in diag_cg2d */
(PID.TID 0000.0001)                     100
(PID.TID 0000.0001)     ;
(PID.TID 0000.0001)  diagCG_resTarget = /* residual target for diag_cg2d */
(PID.TID 0000.0001)                 1.000000000000000E-05
(PID.TID 0000.0001)     ;
(PID.TID 0000.0001)  diagCG_pcOffDFac = /* preconditioner off-diagonal factor */
(PID.TID 0000.0001)                 9.611687812379854E-01
(PID.TID 0000.0001)     ;
(PID.TID 0000.0001) -----------------------------------------------------
(PID.TID 0000.0001)  DIAGNOSTICS_READPARMS: active diagnostics summary:
(PID.TID 0000.0001) -----------------------------------------------------
(PID.TID 0000.0001) Creating Output Stream: state_2d_set1
(PID.TID 0000.0001) Output Frequency:       3600.000000 ; Phase:           0.000000
(PID.TID 0000.0001)  Averaging Freq.:       3600.000000 , Phase:           0.000000 , Cycle:   1
(PID.TID 0000.0001)  missing value: -9.990000000000E+02
(PID.TID 0000.0001)  Levels:    will be set later
(PID.TID 0000.0001)  Fields:    oceTAUX  oceTAUY  oceFWflx oceSflux oceQnet  oceQsw   ETAN
(PID.TID 0000.0001) Creating Output Stream: state_3d_set1
(PID.TID 0000.0001) Output Frequency:       3600.000000 ; Phase:           0.000000
(PID.TID 0000.0001)  Averaging Freq.:       3600.000000 , Phase:           0.000000 , Cycle:   1
(PID.TID 0000.0001)  missing value: -9.990000000000E+02
(PID.TID 0000.0001)  Levels:    will be set later
(PID.TID 0000.0001)  Fields:    SALT     THETA    UVELMASS VVELMASS WVELMASS
(PID.TID 0000.0001) Creating Output Stream: snap_3d_set1
(PID.TID 0000.0001) Output Frequency:      -3600.000000 ; Phase:           0.000000
(PID.TID 0000.0001)  Averaging Freq.:          0.000000 , Phase:           0.000000 , Cycle:   1
(PID.TID 0000.0001)  missing value: -9.990000000000E+02
(PID.TID 0000.0001)  Levels:    will be set later
(PID.TID 0000.0001)  Fields:    SALT     THETA
(PID.TID 0000.0001) Creating Output Stream: snap_2d_set2
(PID.TID 0000.0001) Output Frequency:      -3600.000000 ; Phase:           0.000000
(PID.TID 0000.0001)  Averaging Freq.:          0.000000 , Phase:           0.000000 , Cycle:   1
(PID.TID 0000.0001)  missing value: -9.990000000000E+02
(PID.TID 0000.0001)  Levels:    will be set later
(PID.TID 0000.0001)  Fields:    ETAN
(PID.TID 0000.0001) Creating Output Stream: state_3d_set2
(PID.TID 0000.0001) Output Frequency:       3600.000000 ; Phase:           0.000000
(PID.TID 0000.0001)  Averaging Freq.:       3600.000000 , Phase:           0.000000 , Cycle:   1
(PID.TID 0000.0001)  missing value: -9.990000000000E+02
(PID.TID 0000.0001)  Levels:    will be set later
(PID.TID 0000.0001)  Fields:    DFxE_TH  DFyE_TH  ADVx_TH  ADVy_TH  DFxE_SLT DFyE_SLT ADVx_SLT ADVy_SLT
(PID.TID 0000.0001) Creating Output Stream: state_3d_set4
(PID.TID 0000.0001) Output Frequency:       3600.000000 ; Phase:           0.000000
(PID.TID 0000.0001)  Averaging Freq.:       3600.000000 , Phase:           0.000000 , Cycle:   1
(PID.TID 0000.0001)  missing value: -9.990000000000E+02
(PID.TID 0000.0001)  Levels:    will be set later
(PID.TID 0000.0001)  Fields:    ADVr_TH  DFrE_TH  DFrI_TH  ADVr_SLT DFrE_SLT DFrI_SLT
(PID.TID 0000.0001) Creating Output Stream: iceDiag
(PID.TID 0000.0001) Output Frequency:       3600.000000 ; Phase:           0.000000
(PID.TID 0000.0001)  Averaging Freq.:       3600.000000 , Phase:           0.000000 , Cycle:   1
(PID.TID 0000.0001)  missing value: -9.990000000000E+02
(PID.TID 0000.0001)  Levels:    will be set later
(PID.TID 0000.0001)  Fields:    SIarea   SIheff   SIhsnow  sIceLoad SIuice   SIvice   SItaux   SItauy   ADVxHEFF ADVyHEFF
(PID.TID 0000.0001)  Fields:    ADVxAREA ADVyAREA ADVxSNOW ADVySNOW
(PID.TID 0000.0001) -----------------------------------------------------
(PID.TID 0000.0001)  DIAGNOSTICS_READPARMS: statistics diags. summary:
(PID.TID 0000.0001) Creating Stats. Output Stream: dynStDiag
(PID.TID 0000.0001) Output Frequency:       3600.000000 ; Phase:           0.000000
(PID.TID 0000.0001)  Regions:   0
(PID.TID 0000.0001)  Fields:    ETAN     THETA    SALT     oceQnet  oceFWflx oceSflux
(PID.TID 0000.0001) Creating Stats. Output Stream: iceStDiag
(PID.TID 0000.0001) Output Frequency:       3600.000000 ; Phase:           0.000000
(PID.TID 0000.0001)  Regions:   0
(PID.TID 0000.0001)  Fields:    SIarea   SIheff   SIhsnow  sIceLoad SIuice   SIvice   SItaux   SItauy   SIareaN  SIheffN
(PID.TID 0000.0001)  Fields:    SIhsnowN SIqSnow  SIqIce   SImeltPd SItIces  SIiceAge SI_dArea SI_dHeff SI_dHsnw SI_dQSnw
(PID.TID 0000.0001)  Fields:    SI_dQIce
(PID.TID 0000.0001) -----------------------------------------------------
(PID.TID 0000.0001) 
(PID.TID 0000.0001) SET_PARMS: done
(PID.TID 0000.0001) Enter INI_VERTICAL_GRID: setInterFDr=    T ; setCenterDr=    F
(PID.TID 0000.0001) tile:  13 ; Read from file tile001.mitgrid
(PID.TID 0000.0001)   => xC yC dxF dyF rA xG yG dxV dyU rAz dxC dyC rAw rAs dxG dyG
(PID.TID 0000.0001) %MON XC_max                       =   1.7997758946678E+02
(PID.TID 0000.0001) %MON XC_min                       =  -1.7998895680928E+02
(PID.TID 0000.0001) %MON XC_mean                      =  -1.0354689745251E+01
(PID.TID 0000.0001) %MON XC_sd                        =   1.0601378873778E+02
(PID.TID 0000.0001) %MON XG_max                       =   1.8000000000000E+02
(PID.TID 0000.0001) %MON XG_min                       =  -1.7999919444240E+02
(PID.TID 0000.0001) %MON XG_mean                      =  -9.7316629877778E+00
(PID.TID 0000.0001) %MON XG_sd                        =   1.0605795026741E+02
(PID.TID 0000.0001) %MON DXC_max                      =   1.1117680031365E+05
(PID.TID 0000.0001) %MON DXC_min                      =   1.3362789164732E+04
(PID.TID 0000.0001) %MON DXC_mean                     =   7.1282067642819E+04
(PID.TID 0000.0001) %MON DXC_sd                       =   2.6365676113021E+04
(PID.TID 0000.0001) %MON DXF_max                      =   1.1117680031365E+05
(PID.TID 0000.0001) %MON DXF_min                      =   1.3491575949394E+04
(PID.TID 0000.0001) %MON DXF_mean                     =   7.1262567365097E+04
(PID.TID 0000.0001) %MON DXF_sd                       =   2.6385918670202E+04
(PID.TID 0000.0001) %MON DXG_max                      =   1.1117747335204E+05
(PID.TID 0000.0001) %MON DXG_min                      =   1.0930409249570E+04
(PID.TID 0000.0001) %MON DXG_mean                     =   7.1224912463018E+04
(PID.TID 0000.0001) %MON DXG_sd                       =   2.6396347680762E+04
(PID.TID 0000.0001) %MON DXV_max                      =   1.1117747335204E+05
(PID.TID 0000.0001) %MON DXV_min                      =   9.4742518926426E+03
(PID.TID 0000.0001) %MON DXV_mean                     =   7.1244400980648E+04
(PID.TID 0000.0001) %MON DXV_sd                       =   2.6376171348787E+04
(PID.TID 0000.0001) %MON YC_max                       =   8.9739397429324E+01
(PID.TID 0000.0001) %MON YC_min                       =  -8.8102666383598E+01
(PID.TID 0000.0001) %MON YC_mean                      =  -3.8493079484782E+00
(PID.TID 0000.0001) %MON YC_sd                        =   5.1076689278256E+01
(PID.TID 0000.0001) %MON YG_max                       =   9.0000000000000E+01
(PID.TID 0000.0001) %MON YG_min                       =  -8.8024090322283E+01
(PID.TID 0000.0001) %MON YG_mean                      =  -3.8179083153408E+00
(PID.TID 0000.0001) %MON YG_sd                        =   5.1084555464417E+01
(PID.TID 0000.0001) %MON DYC_max                      =   1.1117680031365E+05
(PID.TID 0000.0001) %MON DYC_min                      =   1.2851209862268E+04
(PID.TID 0000.0001) %MON DYC_mean                     =   7.0996219118354E+04
(PID.TID 0000.0001) %MON DYC_sd                       =   2.7172906336655E+04
(PID.TID 0000.0001) %MON DYF_max                      =   1.1117680031365E+05
(PID.TID 0000.0001) %MON DYF_min                      =   1.2946481280457E+04
(PID.TID 0000.0001) %MON DYF_mean                     =   7.1029727417398E+04
(PID.TID 0000.0001) %MON DYF_sd                       =   2.7169103980511E+04
(PID.TID 0000.0001) %MON DYG_max                      =   1.1117747335204E+05
(PID.TID 0000.0001) %MON DYG_min                      =   1.0930409249570E+04
(PID.TID 0000.0001) %MON DYG_mean                     =   7.1056024568496E+04
(PID.TID 0000.0001) %MON DYG_sd                       =   2.7138779068799E+04
(PID.TID 0000.0001) %MON DYU_max                      =   1.1117747335204E+05
(PID.TID 0000.0001) %MON DYU_min                      =   9.4742518926426E+03
(PID.TID 0000.0001) %MON DYU_mean                     =   7.1022557361675E+04
(PID.TID 0000.0001) %MON DYU_sd                       =   2.7142564797123E+04
(PID.TID 0000.0001) %MON RA_max                       =   1.1896090857160E+10
(PID.TID 0000.0001) %MON RA_min                       =   1.8802726709832E+08
(PID.TID 0000.0001) %MON RA_mean                      =   5.6509598865793E+09
(PID.TID 0000.0001) %MON RA_sd                        =   3.6237073945657E+09
(PID.TID 0000.0001) %MON RAW_max                      =   1.1896090856781E+10
(PID.TID 0000.0001) %MON RAW_min                      =   1.7369571508711E+08
(PID.TID 0000.0001) %MON RAW_mean                     =   5.6529106837210E+09
(PID.TID 0000.0001) %MON RAW_sd                       =   3.6222060900726E+09
(PID.TID 0000.0001) %MON RAS_max                      =   1.1896090856781E+10
(PID.TID 0000.0001) %MON RAS_min                      =   1.7369571508711E+08
(PID.TID 0000.0001) %MON RAS_mean                     =   5.6462585155598E+09
(PID.TID 0000.0001) %MON RAS_sd                       =   3.6239168120244E+09
(PID.TID 0000.0001) %MON RAZ_max                      =   1.1891903479271E+10
(PID.TID 0000.0001) %MON RAZ_min                      =   1.0413402423292E+08
(PID.TID 0000.0001) %MON RAZ_mean                     =   5.6482099179688E+09
(PID.TID 0000.0001) %MON RAZ_sd                       =   3.6224179770596E+09
(PID.TID 0000.0001) %MON AngleCS_max                  =   1.0000000000000E+00
(PID.TID 0000.0001) %MON AngleCS_min                  =  -9.9996641938864E-01
(PID.TID 0000.0001) %MON AngleCS_mean                 =   3.7891728692339E-01
(PID.TID 0000.0001) %MON AngleCS_sd                   =   5.4799109936655E-01
(PID.TID 0000.0001) %MON AngleSN_max                  =   9.9996641938864E-01
(PID.TID 0000.0001) %MON AngleSN_min                  =  -1.0000000000000E+00
(PID.TID 0000.0001) %MON AngleSN_mean                 =  -5.1564638641270E-01
(PID.TID 0000.0001) %MON AngleSN_sd                   =   5.3873578762245E-01
(PID.TID 0000.0001) 
(PID.TID 0000.0001) // =======================================================
(PID.TID 0000.0001) // Calendar configuration >>> START <<<
(PID.TID 0000.0001) // =======================================================
(PID.TID 0000.0001) 
(PID.TID 0000.0001) modelstart = /* Start time of the model integration [s] */
(PID.TID 0000.0001)                 7.856460000000000E+07
(PID.TID 0000.0001)     ;
(PID.TID 0000.0001) modelend  = /* End time of the model integration [s] */
(PID.TID 0000.0001)                 7.873740000000000E+07
(PID.TID 0000.0001)     ;
(PID.TID 0000.0001) modelStep = /* Time interval for a model forward step [s] */
(PID.TID 0000.0001)                 4.500000000000000E+02
(PID.TID 0000.0001)     ;
(PID.TID 0000.0001) usingGregorianCalendar= /* Calendar Type: Gregorian Calendar */
(PID.TID 0000.0001)                   T
(PID.TID 0000.0001)     ;
(PID.TID 0000.0001) usingJulianCalendar = /* Calendar Type: Julian Calendar */
(PID.TID 0000.0001)                   F
(PID.TID 0000.0001)     ;
(PID.TID 0000.0001) usingNoLeapYearCal  = /* Calendar Type: without Leap Year */
(PID.TID 0000.0001)                   F
(PID.TID 0000.0001)     ;
(PID.TID 0000.0001) usingModelCalendar  = /* Calendar Type: Model Calendar */
(PID.TID 0000.0001)                   F
(PID.TID 0000.0001)     ;
(PID.TID 0000.0001) modelStartDate YYYYMMDD = /* Model start date YYYY-MM-DD */
(PID.TID 0000.0001)                20140804
(PID.TID 0000.0001)     ;
(PID.TID 0000.0001)   modelStartDate HHMMSS = /* Model start date HH-MM-SS  */
(PID.TID 0000.0001)                   43000
(PID.TID 0000.0001)     ;
(PID.TID 0000.0001) modelEndDate   YYYYMMDD = /* Model end date YYYY-MM-DD */
(PID.TID 0000.0001)                20140806
(PID.TID 0000.0001)     ;
(PID.TID 0000.0001)   modelEndDate   HHMMSS = /* Model end date HH-MM-SS  */
(PID.TID 0000.0001)                   43000
(PID.TID 0000.0001)     ;
(PID.TID 0000.0001) intyears = /* Number of calendar years affected by the integration */
(PID.TID 0000.0001)                       1
(PID.TID 0000.0001)     ;
(PID.TID 0000.0001) intmonths= /* Number of calendar months affected by the integration */
(PID.TID 0000.0001)                       1
(PID.TID 0000.0001)     ;
(PID.TID 0000.0001) intdays = /* Number of calendar days affected by the integration */
(PID.TID 0000.0001)                       3
(PID.TID 0000.0001)     ;
(PID.TID 0000.0001) modelIter0 = /* Base timestep number  */
(PID.TID 0000.0001)                  174588
(PID.TID 0000.0001)     ;
(PID.TID 0000.0001) modelIterEnd = /* Final timestep number  */
(PID.TID 0000.0001)                  174972
(PID.TID 0000.0001)     ;
(PID.TID 0000.0001) modelIntSteps= /* Number of model timesteps  */
(PID.TID 0000.0001)                     384
(PID.TID 0000.0001)     ;
(PID.TID 0000.0001) 
(PID.TID 0000.0001) // =======================================================
(PID.TID 0000.0001) // Calendar configuration  >>> END <<<
(PID.TID 0000.0001) // =======================================================
(PID.TID 0000.0001) 
(PID.TID 0000.0001) GAD_INIT_FIXED: GAD_OlMinSize=  2  0  2
(PID.TID 0000.0001) 
(PID.TID 0000.0001) // ===================================
(PID.TID 0000.0001) // GAD parameters :
(PID.TID 0000.0001) // ===================================
(PID.TID 0000.0001) tempAdvScheme =   /* Temp. Horiz.Advection scheme selector */
(PID.TID 0000.0001)                      77
(PID.TID 0000.0001)     ;
(PID.TID 0000.0001) tempVertAdvScheme =   /* Temp. Vert. Advection scheme selector */
(PID.TID 0000.0001)                      77
(PID.TID 0000.0001)     ;
(PID.TID 0000.0001) tempMultiDimAdvec =   /* use Muti-Dim Advec method for Temp */
(PID.TID 0000.0001)                   T
(PID.TID 0000.0001)     ;
(PID.TID 0000.0001) tempSOM_Advection = /* use 2nd Order Moment Advection for Temp */
(PID.TID 0000.0001)                   F
(PID.TID 0000.0001)     ;
(PID.TID 0000.0001) AdamsBashforthGt = /* apply Adams-Bashforth extrapolation on Gt */
(PID.TID 0000.0001)                   F
(PID.TID 0000.0001)     ;
(PID.TID 0000.0001) AdamsBashforth_T = /* apply Adams-Bashforth extrapolation on Temp */
(PID.TID 0000.0001)                   F
(PID.TID 0000.0001)     ;
(PID.TID 0000.0001) saltAdvScheme =   /* Salt. Horiz.advection scheme selector */
(PID.TID 0000.0001)                      77
(PID.TID 0000.0001)     ;
(PID.TID 0000.0001) saltVertAdvScheme =   /* Salt. Vert. Advection scheme selector */
(PID.TID 0000.0001)                      77
(PID.TID 0000.0001)     ;
(PID.TID 0000.0001) saltMultiDimAdvec =   /* use Muti-Dim Advec method for Salt */
(PID.TID 0000.0001)                   T
(PID.TID 0000.0001)     ;
(PID.TID 0000.0001) saltSOM_Advection = /* use 2nd Order Moment Advection for Salt */
(PID.TID 0000.0001)                   F
(PID.TID 0000.0001)     ;
(PID.TID 0000.0001) AdamsBashforthGs = /* apply Adams-Bashforth extrapolation on Gs */
(PID.TID 0000.0001)                   F
(PID.TID 0000.0001)     ;
(PID.TID 0000.0001) AdamsBashforth_S = /* apply Adams-Bashforth extrapolation on Salt */
(PID.TID 0000.0001)                   F
(PID.TID 0000.0001)     ;
(PID.TID 0000.0001) // ===================================
(PID.TID 0000.0001)  SEAICE_INIT_FIXED:  5 sea ice thickness categories
(PID.TID 0000.0001)  SEAICE_INIT_FIXED: Hlimit =   0.00  0.64  1.39  2.47  4.57 999.9
(PID.TID 0000.0001) // =======================================================
(PID.TID 0000.0001) // Seaice configuration (SEAICE_PARM01) >>> START <<<
(PID.TID 0000.0001) // =======================================================
(PID.TID 0000.0001) 
(PID.TID 0000.0001)    Seaice time stepping configuration   > START <
(PID.TID 0000.0001)    ----------------------------------------------
(PID.TID 0000.0001) SEAICE_deltaTtherm= /* thermodynamic timestep */
(PID.TID 0000.0001)                 4.500000000000000E+02
(PID.TID 0000.0001)     ;
(PID.TID 0000.0001) SEAICE_deltaTdyn  = /* dynamic timestep */
(PID.TID 0000.0001)                 4.500000000000000E+02
(PID.TID 0000.0001)     ;
(PID.TID 0000.0001) SEAICE_deltaTevp  = /* EVP timestep */
(PID.TID 0000.0001)                 1.234567000000000E+05
(PID.TID 0000.0001)     ;
(PID.TID 0000.0001) SEAICEuseBDF2  = /* use backw. differencing for mom. eq. */
(PID.TID 0000.0001)                   F
(PID.TID 0000.0001)     ;
(PID.TID 0000.0001) SEAICEupdateOceanStress= /* update Ocean surf. stress */
(PID.TID 0000.0001)                   T
(PID.TID 0000.0001)     ;
(PID.TID 0000.0001) SEAICErestoreUnderIce  = /* restore T and S under ice */
(PID.TID 0000.0001)                   F
(PID.TID 0000.0001)     ;
(PID.TID 0000.0001) 
(PID.TID 0000.0001)    Seaice dynamics configuration   > START <
(PID.TID 0000.0001)    ------------------------------------------
(PID.TID 0000.0001) SEAICEuseDYNAMICS = /* use dynamics */
(PID.TID 0000.0001)                   T
(PID.TID 0000.0001)     ;
(PID.TID 0000.0001) model grid type   = /* type of sea ice model grid */
(PID.TID 0000.0001)               'C-GRID'
(PID.TID 0000.0001)     ;
(PID.TID 0000.0001) SEAICEuseStrImpCpl = /* use strongly implicit coupling */
(PID.TID 0000.0001)                   F
(PID.TID 0000.0001)     ;
(PID.TID 0000.0001) SEAICEusePicardAsPrecon = /* Picard as preconditioner */
(PID.TID 0000.0001)                   F
(PID.TID 0000.0001)     ;
(PID.TID 0000.0001) SEAICEuseLSR      = /* use default Picard-LSR solver */
(PID.TID 0000.0001)                   T
(PID.TID 0000.0001)     ;
(PID.TID 0000.0001) SEAICEuseKrylov   = /* use Picard-Krylov solver */
(PID.TID 0000.0001)                   F
(PID.TID 0000.0001)     ;
(PID.TID 0000.0001) SEAICEuseEVP      = /* use EVP solver rather than LSR */
(PID.TID 0000.0001)                   F
(PID.TID 0000.0001)     ;
(PID.TID 0000.0001) SEAICEuseJFNK     = /* use JFNK solver */
(PID.TID 0000.0001)                   F
(PID.TID 0000.0001)     ;
(PID.TID 0000.0001) OCEAN_drag        = /* air-ocean drag coefficient */
(PID.TID 0000.0001)                 8.154100000000000E-04
(PID.TID 0000.0001)     ;
(PID.TID 0000.0001) SEAICE_drag       = /* air-ice drag coefficient */
(PID.TID 0000.0001)                 2.000000000000000E-03
(PID.TID 0000.0001)     ;
(PID.TID 0000.0001) SEAICE_drag_south      = /* Southern Ocean SEAICE_drag */
(PID.TID 0000.0001)                 2.000000000000000E-03
(PID.TID 0000.0001)     ;
(PID.TID 0000.0001) SEAICE_waterDrag  = /* water-ice drag */
(PID.TID 0000.0001)                 5.169855072463768E-03
(PID.TID 0000.0001)     ;
(PID.TID 0000.0001) SEAICE_waterDrag_south = /* Southern Ocean waterDrag */
(PID.TID 0000.0001)                 5.169855072463768E-03
(PID.TID 0000.0001)     ;
(PID.TID 0000.0001) SEAICEuseTilt     = /* include surface tilt in dyna. */
(PID.TID 0000.0001)                   T
(PID.TID 0000.0001)     ;
(PID.TID 0000.0001) SEAICEuseTEM      = /* use truncated ellipse rheology */
(PID.TID 0000.0001)                   F
(PID.TID 0000.0001)     ;
(PID.TID 0000.0001) SEAICE_strength   = /* sea-ice strength Pstar */
(PID.TID 0000.0001)                 2.678000000000000E+04
(PID.TID 0000.0001)     ;
(PID.TID 0000.0001) SEAICE_cStar      = /* sea-ice strength parameter cStar */
(PID.TID 0000.0001)                 2.000000000000000E+01
(PID.TID 0000.0001)     ;
(PID.TID 0000.0001) SEAICEpressReplFac= /* press. replacement method factor */
(PID.TID 0000.0001)                 1.000000000000000E+00
(PID.TID 0000.0001)     ;
(PID.TID 0000.0001) SEAICE_tensilFac  = /* sea-ice tensile strength factor */
(PID.TID 0000.0001)                 0.000000000000000E+00
(PID.TID 0000.0001)     ;
(PID.TID 0000.0001) SEAICE_tensilDepth= /* crit. depth for tensile strength */
(PID.TID 0000.0001)                 0.000000000000000E+00
(PID.TID 0000.0001)     ;
(PID.TID 0000.0001) SEAICEpresH0   = /* sea-ice strength Heff threshold */
(PID.TID 0000.0001)                 1.000000000000000E+00
(PID.TID 0000.0001)     ;
(PID.TID 0000.0001) SEAICEpresPow0 = /* exponent for Heff<SEAICEpresH0 */
(PID.TID 0000.0001)                       1
(PID.TID 0000.0001)     ;
(PID.TID 0000.0001) SEAICEpresPow1 = /* exponent for Heff>SEAICEpresH0 */
(PID.TID 0000.0001)                       1
(PID.TID 0000.0001)     ;
(PID.TID 0000.0001) SEAICEetaZmethod = /* method computing eta at Z-point */
(PID.TID 0000.0001)                       0
(PID.TID 0000.0001)     ;
(PID.TID 0000.0001) SEAICE_zetaMin    = /* lower bound for viscosity */
(PID.TID 0000.0001)                 0.000000000000000E+00
(PID.TID 0000.0001)     ;
(PID.TID 0000.0001) SEAICE_eccen    = /* elliptical yield curve eccent */
(PID.TID 0000.0001)                 2.000000000000000E+00
(PID.TID 0000.0001)     ;
(PID.TID 0000.0001) SEAICEstressFactor    = /* wind stress scaling factor */
(PID.TID 0000.0001)                 1.000000000000000E+00
(PID.TID 0000.0001)     ;
(PID.TID 0000.0001) SEAICE_airTurnAngle    = /* air-ice turning angle */
(PID.TID 0000.0001)                 0.000000000000000E+00
(PID.TID 0000.0001)     ;
(PID.TID 0000.0001) SEAICE_waterTurnAngle  = /* ice-water turning angle */
(PID.TID 0000.0001)                 0.000000000000000E+00
(PID.TID 0000.0001)     ;
(PID.TID 0000.0001) SEAICEuseMetricTerms = /* use metric terms */
(PID.TID 0000.0001)                   T
(PID.TID 0000.0001)     ;
(PID.TID 0000.0001) SEAICE_no_slip    = /* no slip boundary conditions */
(PID.TID 0000.0001)                   F
(PID.TID 0000.0001)     ;
(PID.TID 0000.0001) SEAICE_2ndOrderBC = /* 2nd order no slip boundary conditions */
(PID.TID 0000.0001)                   F
(PID.TID 0000.0001)     ;
(PID.TID 0000.0001) SEAICE_clipVeloctities = /* impose max. vels. */
(PID.TID 0000.0001)                   F
(PID.TID 0000.0001)     ;
(PID.TID 0000.0001) useHB87stressCoupling  = /* altern. ice-ocean stress */
(PID.TID 0000.0001)                   F
(PID.TID 0000.0001)     ;
(PID.TID 0000.0001) SEAICEscaleSurfStress  = /* scale atm. and ocean-surface stress with AREA */
(PID.TID 0000.0001)                   F
(PID.TID 0000.0001)     ;
(PID.TID 0000.0001) SEAICE_maskRHS    = /* mask RHS of solver */
(PID.TID 0000.0001)                   F
(PID.TID 0000.0001)     ;
(PID.TID 0000.0001) SEAICEaddSnowMass = /* add snow mass to seaiceMassC/U/V */
(PID.TID 0000.0001)                   F
(PID.TID 0000.0001)     ;
(PID.TID 0000.0001) LSR_mixIniGuess = /* mix free-drift sol. into LSR initial Guess */
(PID.TID 0000.0001)                      -1
(PID.TID 0000.0001)     ;
(PID.TID 0000.0001) SEAICE_LSRrelaxU  = /* LSR solver: relaxation parameter */
(PID.TID 0000.0001)                 9.500000000000000E-01
(PID.TID 0000.0001)     ;
(PID.TID 0000.0001) SEAICE_LSRrelaxV  = /* LSR solver: relaxation parameter */
(PID.TID 0000.0001)                 9.500000000000000E-01
(PID.TID 0000.0001)     ;
(PID.TID 0000.0001) LSR_ERROR         = /* sets accuracy of LSR solver */
(PID.TID 0000.0001)                 1.000000000000000E-04
(PID.TID 0000.0001)     ;
(PID.TID 0000.0001) SOLV_NCHECK       = /* test interval for LSR solver */
(PID.TID 0000.0001)                       2
(PID.TID 0000.0001)     ;
(PID.TID 0000.0001) SEAICEuseMultiTileSolver = /* use full domain tri-diag solver */
(PID.TID 0000.0001)                   F
(PID.TID 0000.0001)     ;
(PID.TID 0000.0001) SEAICE_OLx = /* overlap for LSR/preconditioner */
(PID.TID 0000.0001)                       0
(PID.TID 0000.0001)     ;
(PID.TID 0000.0001) SEAICE_OLy = /* overlap for LSR/preconditioner */
(PID.TID 0000.0001)                       0
(PID.TID 0000.0001)     ;
(PID.TID 0000.0001) SEAICEnonLinIterMax = /* max. number of nonlinear solver steps */
(PID.TID 0000.0001)                       2
(PID.TID 0000.0001)     ;
(PID.TID 0000.0001) SEAICElinearIterMax = /* max. number of linear solver steps */
(PID.TID 0000.0001)                     500
(PID.TID 0000.0001)     ;
(PID.TID 0000.0001) SEAICEnonLinTol     = /* non-linear solver tolerance */
(PID.TID 0000.0001)                 0.000000000000000E+00
(PID.TID 0000.0001)     ;
(PID.TID 0000.0001) 
(PID.TID 0000.0001)    Seaice advection diffusion config,   > START <
(PID.TID 0000.0001)    -----------------------------------------------
(PID.TID 0000.0001) SEAICEmomAdvection = /* advect sea ice momentum */
(PID.TID 0000.0001)                   F
(PID.TID 0000.0001)     ;
(PID.TID 0000.0001) SEAICEadvHeff = /* advect effective ice thickness */
(PID.TID 0000.0001)                   T
(PID.TID 0000.0001)     ;
(PID.TID 0000.0001) SEAICEadvArea = /* advect fractional ice area */
(PID.TID 0000.0001)                   T
(PID.TID 0000.0001)     ;
(PID.TID 0000.0001) SEAICEadvSnow = /* advect snow layer together with ice */
(PID.TID 0000.0001)                   T
(PID.TID 0000.0001)     ;
(PID.TID 0000.0001) SEAICEadvScheme   = /* advection scheme for ice */
(PID.TID 0000.0001)                      77
(PID.TID 0000.0001)     ;
(PID.TID 0000.0001) SEAICEadvSchArea   = /* advection scheme for area */
(PID.TID 0000.0001)                      77
(PID.TID 0000.0001)     ;
(PID.TID 0000.0001) SEAICEadvSchHeff   = /* advection scheme for thickness */
(PID.TID 0000.0001)                      77
(PID.TID 0000.0001)     ;
(PID.TID 0000.0001) SEAICEadvSchSnow   = /* advection scheme for snow */
(PID.TID 0000.0001)                      77
(PID.TID 0000.0001)     ;
(PID.TID 0000.0001) SEAICEdiffKhArea   = /* diffusivity (m^2/s) for area */
(PID.TID 0000.0001)                 0.000000000000000E+00
(PID.TID 0000.0001)     ;
(PID.TID 0000.0001) SEAICEdiffKhHeff   = /* diffusivity (m^2/s) for heff */
(PID.TID 0000.0001)                 0.000000000000000E+00
(PID.TID 0000.0001)     ;
(PID.TID 0000.0001) SEAICEdiffKhSnow   = /* diffusivity (m^2/s) for snow */
(PID.TID 0000.0001)                 0.000000000000000E+00
(PID.TID 0000.0001)     ;
(PID.TID 0000.0001) DIFF1             = /* parameter used in advect.F [m/s] */
(PID.TID 0000.0001)                 0.000000000000000E+00
(PID.TID 0000.0001)     ;
(PID.TID 0000.0001) 
(PID.TID 0000.0001)    Seaice thermodynamics configuration   > START <
(PID.TID 0000.0001)    -----------------------------------------------
(PID.TID 0000.0001) SEAICE_rhoIce     = /* density of sea ice (kg/m3) */
(PID.TID 0000.0001)                 9.100000000000000E+02
(PID.TID 0000.0001)     ;
(PID.TID 0000.0001) SEAICE_rhoSnow    = /* density of snow (kg/m3) */
(PID.TID 0000.0001)                 3.300000000000000E+02
(PID.TID 0000.0001)     ;
(PID.TID 0000.0001) SEAICE_rhoAir     = /* density of air (kg/m3) */
(PID.TID 0000.0001)                 1.300000000000000E+00
(PID.TID 0000.0001)     ;
(PID.TID 0000.0001) usePW79thermodynamics  = /* default 0-layer TD */
(PID.TID 0000.0001)                   F
(PID.TID 0000.0001)     ;
(PID.TID 0000.0001)    pkg/seaice thermodynamics is OFF
(PID.TID 0000.0001) 
(PID.TID 0000.0001)    Seaice initialization and IO config.,   > START <
(PID.TID 0000.0001)    -------------------------------------------------
(PID.TID 0000.0001) SEAICE_initialHEFF= /* initial sea-ice thickness */
(PID.TID 0000.0001)                 0.000000000000000E+00
(PID.TID 0000.0001)     ;
(PID.TID 0000.0001) AreaFile = /* Initial ice concentration File */
(PID.TID 0000.0001)               ''
(PID.TID 0000.0001)     ;
(PID.TID 0000.0001) HeffFile = /* Initial effective ice thickness File */
(PID.TID 0000.0001)               ''
(PID.TID 0000.0001)     ;
(PID.TID 0000.0001) HsnowFile = /* Initial snow thickness File */
(PID.TID 0000.0001)               ''
(PID.TID 0000.0001)     ;
(PID.TID 0000.0001) uIceFile = /* Initial U-ice velocity File */
(PID.TID 0000.0001)               ''
(PID.TID 0000.0001)     ;
(PID.TID 0000.0001) vIceFile = /* Initial V-ice velocity File */
(PID.TID 0000.0001)               ''
(PID.TID 0000.0001)     ;
(PID.TID 0000.0001) SEAICEwriteState  = /* write sea ice state to file */
(PID.TID 0000.0001)                   T
(PID.TID 0000.0001)     ;
(PID.TID 0000.0001) SEAICE_monFreq  = /* monitor frequency */
(PID.TID 0000.0001)                 6.000000000000000E+01
(PID.TID 0000.0001)     ;
(PID.TID 0000.0001) SEAICE_dumpFreq   = /* dump frequency */
(PID.TID 0000.0001)                 3.600000000000000E+03
(PID.TID 0000.0001)     ;
(PID.TID 0000.0001) SEAICE_taveFreq   = /* time-averaging frequency */
(PID.TID 0000.0001)                 0.000000000000000E+00
(PID.TID 0000.0001)     ;
(PID.TID 0000.0001) SEAICE_mon_stdio  = /* write monitor to std-outp */
(PID.TID 0000.0001)                   T
(PID.TID 0000.0001)     ;
(PID.TID 0000.0001) SEAICE_dump_mdsio = /* write snap-shot   using MDSIO */
(PID.TID 0000.0001)                   T
(PID.TID 0000.0001)     ;
(PID.TID 0000.0001) SEAICE_tave_mdsio = /* write TimeAverage using MDSIO */
(PID.TID 0000.0001)                   T
(PID.TID 0000.0001)     ;
(PID.TID 0000.0001) 
(PID.TID 0000.0001)    Seaice regularization numbers,   > START <
(PID.TID 0000.0001)    -----------------------------------------------
(PID.TID 0000.0001) SEAICE_deltaMin   = /* reduce singularities in Delta */
(PID.TID 0000.0001)                 1.000000000000000E-10
(PID.TID 0000.0001)     ;
(PID.TID 0000.0001) SEAICE_EPS        = /* small number */
(PID.TID 0000.0001)                 1.000000000000000E-10
(PID.TID 0000.0001)     ;
(PID.TID 0000.0001) SEAICE_EPS_SQ     = /* small number squared */
(PID.TID 0000.0001)                 1.000000000000000E-20
(PID.TID 0000.0001)     ;
(PID.TID 0000.0001) SEAICE_area_reg   = /* reduce derivative singularities */
(PID.TID 0000.0001)                 1.000000000000000E-05
(PID.TID 0000.0001)     ;
(PID.TID 0000.0001) SEAICE_hice_reg   = /* reduce derivative singularities */
(PID.TID 0000.0001)                 5.000000000000000E-02
(PID.TID 0000.0001)     ;
(PID.TID 0000.0001) SEAICE_area_floor = /* reduce derivative singularities */
(PID.TID 0000.0001)                 1.000000000000000E-05
(PID.TID 0000.0001)     ;
(PID.TID 0000.0001) 
(PID.TID 0000.0001) // =======================================================
(PID.TID 0000.0001) // Seaice configuration (SEAICE_PARM01) >>> END <<<
(PID.TID 0000.0001) // =======================================================
(PID.TID 0000.0001) 
(PID.TID 0000.0001) ------------------------------------------------------------
(PID.TID 0000.0001) DIAGNOSTICS_SET_LEVELS: done
(PID.TID 0000.0001)  Total Nb of available Diagnostics: ndiagt=   290
(PID.TID 0000.0001) SETDIAG: Allocate  1 x  1 Levels for Diagnostic #    80 oceTAUX
(PID.TID 0000.0001) SETDIAG: Allocate  1 x  1 Levels for Diagnostic #    81 oceTAUY
(PID.TID 0000.0001) SETDIAG: Allocate  1 x  1 Levels for Diagnostic #    84 oceFWflx
(PID.TID 0000.0001) SETDIAG: Allocate  1 x  1 Levels for Diagnostic #    85 oceSflux
(PID.TID 0000.0001) SETDIAG: Allocate  1 x  1 Levels for Diagnostic #    86 oceQnet
(PID.TID 0000.0001) SETDIAG: Allocate  1 x  1 Levels for Diagnostic #    87 oceQsw
(PID.TID 0000.0001) SETDIAG: Allocate  1 x  1 Levels for Diagnostic #    23 ETAN
(PID.TID 0000.0001) SETDIAG: Allocate 50 x  1 Levels for Diagnostic #    27 SALT
(PID.TID 0000.0001) SETDIAG: Allocate 50 x  1 Levels for Diagnostic #    26 THETA
(PID.TID 0000.0001) SETDIAG: Allocate 50 x  1 Levels for Diagnostic #    45 UVELMASS
(PID.TID 0000.0001) SETDIAG: Allocate 50 x  1 Levels for Diagnostic #    46 VVELMASS
(PID.TID 0000.0001) SETDIAG: Allocate 50 x  1 Levels for Diagnostic #    47 WVELMASS
(PID.TID 0000.0001) SETDIAG: Allocate 50 x  1 Levels for Diagnostic #    27 SALT
(PID.TID 0000.0001) SETDIAG: Allocate 50 x  1 Levels for Diagnostic #    26 THETA
(PID.TID 0000.0001) SETDIAG: Allocate  1 x  1 Levels for Diagnostic #    23 ETAN
(PID.TID 0000.0001) SETDIAG: Allocate 50 x  1 Levels for Diagnostic #   114 DFxE_TH
(PID.TID 0000.0001) SETDIAG: Allocate 50 x  1 Levels for Diagnostic #   115 DFyE_TH
(PID.TID 0000.0001) SETDIAG: Allocate 50 x  1 Levels for Diagnostic #   111 ADVx_TH
(PID.TID 0000.0001) SETDIAG: Allocate 50 x  1 Levels for Diagnostic #   112 ADVy_TH
(PID.TID 0000.0001) SETDIAG: Allocate 50 x  1 Levels for Diagnostic #   121 DFxE_SLT
(PID.TID 0000.0001) SETDIAG: Allocate 50 x  1 Levels for Diagnostic #   122 DFyE_SLT
(PID.TID 0000.0001) SETDIAG: Allocate 50 x  1 Levels for Diagnostic #   118 ADVx_SLT
(PID.TID 0000.0001) SETDIAG: Allocate 50 x  1 Levels for Diagnostic #   119 ADVy_SLT
(PID.TID 0000.0001) SETDIAG: Allocate 50 x  1 Levels for Diagnostic #   110 ADVr_TH
(PID.TID 0000.0001) SETDIAG: Allocate 50 x  1 Levels for Diagnostic #   113 DFrE_TH
(PID.TID 0000.0001) SETDIAG: Allocate 50 x  1 Levels for Diagnostic #   116 DFrI_TH
(PID.TID 0000.0001) SETDIAG: Allocate 50 x  1 Levels for Diagnostic #   117 ADVr_SLT
(PID.TID 0000.0001) SETDIAG: Allocate 50 x  1 Levels for Diagnostic #   120 DFrE_SLT
(PID.TID 0000.0001) SETDIAG: Allocate 50 x  1 Levels for Diagnostic #   123 DFrI_SLT
(PID.TID 0000.0001) SETDIAG: Allocate  1 x  1 Levels for Diagnostic #   204 SIarea
(PID.TID 0000.0001) SETDIAG: Allocate  1 x  1 Levels for Diagnostic #   207 SIheff
(PID.TID 0000.0001) SETDIAG: Allocate  1 x  1 Levels for Diagnostic #   209 SIhsnow
(PID.TID 0000.0001) SETDIAG: Allocate  1 x  1 Levels for Diagnostic #    83 sIceLoad
(PID.TID 0000.0001) SETDIAG: Allocate  1 x  1 Levels for Diagnostic #   213 SIuice
(PID.TID 0000.0001) SETDIAG: Allocate  1 x  1 Levels for Diagnostic #   214 SIvice
(PID.TID 0000.0001) SETDIAG: Allocate  1 x  1 Levels for Diagnostic #   215 SItaux
(PID.TID 0000.0001) SETDIAG: Allocate  1 x  1 Levels for Diagnostic #   216 SItauy
(PID.TID 0000.0001) SETDIAG: Allocate  1 x  1 Levels for Diagnostic #   248 ADVxHEFF
(PID.TID 0000.0001) SETDIAG: Allocate  1 x  1 Levels for Diagnostic #   249 ADVyHEFF
(PID.TID 0000.0001) SETDIAG: Allocate  1 x  1 Levels for Diagnostic #   252 ADVxAREA
(PID.TID 0000.0001) SETDIAG: Allocate  1 x  1 Levels for Diagnostic #   253 ADVyAREA
(PID.TID 0000.0001) SETDIAG: Allocate  1 x  1 Levels for Diagnostic #   256 ADVxSNOW
(PID.TID 0000.0001) SETDIAG: Allocate  1 x  1 Levels for Diagnostic #   257 ADVySNOW
(PID.TID 0000.0001)   space allocated for all diagnostics:    1072 levels
(PID.TID 0000.0001)   set mate pointer for diag #    80  oceTAUX  , Parms: UU      U1 , mate:    81
(PID.TID 0000.0001)   set mate pointer for diag #    81  oceTAUY  , Parms: VV      U1 , mate:    80
(PID.TID 0000.0001)   set mate pointer for diag #    45  UVELMASS , Parms: UUr     MR , mate:    46
(PID.TID 0000.0001)   set mate pointer for diag #    46  VVELMASS , Parms: VVr     MR , mate:    45
(PID.TID 0000.0001)   set mate pointer for diag #   114  DFxE_TH  , Parms: UU      MR , mate:   115
(PID.TID 0000.0001)   set mate pointer for diag #   115  DFyE_TH  , Parms: VV      MR , mate:   114
(PID.TID 0000.0001)   set mate pointer for diag #   111  ADVx_TH  , Parms: UU      MR , mate:   112
(PID.TID 0000.0001)   set mate pointer for diag #   112  ADVy_TH  , Parms: VV      MR , mate:   111
(PID.TID 0000.0001)   set mate pointer for diag #   121  DFxE_SLT , Parms: UU      MR , mate:   122
(PID.TID 0000.0001)   set mate pointer for diag #   122  DFyE_SLT , Parms: VV      MR , mate:   121
(PID.TID 0000.0001)   set mate pointer for diag #   118  ADVx_SLT , Parms: UU      MR , mate:   119
(PID.TID 0000.0001)   set mate pointer for diag #   119  ADVy_SLT , Parms: VV      MR , mate:   118
(PID.TID 0000.0001)   set mate pointer for diag #   213  SIuice   , Parms: UU      M1 , mate:   214
(PID.TID 0000.0001)   set mate pointer for diag #   214  SIvice   , Parms: VV      M1 , mate:   213
(PID.TID 0000.0001)   set mate pointer for diag #   215  SItaux   , Parms: UU      U1 , mate:   216
(PID.TID 0000.0001)   set mate pointer for diag #   216  SItauy   , Parms: VV      U1 , mate:   215
(PID.TID 0000.0001)   set mate pointer for diag #   248  ADVxHEFF , Parms: UU      M1 , mate:   249
(PID.TID 0000.0001)   set mate pointer for diag #   249  ADVyHEFF , Parms: VV      M1 , mate:   248
(PID.TID 0000.0001)   set mate pointer for diag #   252  ADVxAREA , Parms: UU      M1 , mate:   253
(PID.TID 0000.0001)   set mate pointer for diag #   253  ADVyAREA , Parms: VV      M1 , mate:   252
(PID.TID 0000.0001)   set mate pointer for diag #   256  ADVxSNOW , Parms: UU      M1 , mate:   257
(PID.TID 0000.0001)   set mate pointer for diag #   257  ADVySNOW , Parms: VV      M1 , mate:   256
(PID.TID 0000.0001) DIAGNOSTICS_SET_POINTERS: Set levels for Outp.Stream: state_2d_set1
(PID.TID 0000.0001)  Levels:       1.
(PID.TID 0000.0001) DIAGNOSTICS_SET_POINTERS: Set levels for Outp.Stream: state_3d_set1
(PID.TID 0000.0001)  Levels:       1.   2.   3.   4.   5.   6.   7.   8.   9.  10.  11.  12.  13.  14.  15.  16.  17.  18.  19.  20.
(PID.TID 0000.0001)  Levels:      21.  22.  23.  24.  25.  26.  27.  28.  29.  30.  31.  32.  33.  34.  35.  36.  37.  38.  39.  40.
(PID.TID 0000.0001)  Levels:      41.  42.  43.  44.  45.  46.  47.  48.  49.  50.
(PID.TID 0000.0001) DIAGNOSTICS_SET_POINTERS: Set levels for Outp.Stream: snap_3d_set1
(PID.TID 0000.0001)  Levels:       1.   2.   3.   4.   5.   6.   7.   8.   9.  10.  11.  12.  13.  14.  15.  16.  17.  18.  19.  20.
(PID.TID 0000.0001)  Levels:      21.  22.  23.  24.  25.  26.  27.  28.  29.  30.  31.  32.  33.  34.  35.  36.  37.  38.  39.  40.
(PID.TID 0000.0001)  Levels:      41.  42.  43.  44.  45.  46.  47.  48.  49.  50.
(PID.TID 0000.0001) DIAGNOSTICS_SET_POINTERS: Set levels for Outp.Stream: snap_2d_set2
(PID.TID 0000.0001)  Levels:       1.
(PID.TID 0000.0001) DIAGNOSTICS_SET_POINTERS: Set levels for Outp.Stream: state_3d_set2
(PID.TID 0000.0001)  Levels:       1.   2.   3.   4.   5.   6.   7.   8.   9.  10.  11.  12.  13.  14.  15.  16.  17.  18.  19.  20.
(PID.TID 0000.0001)  Levels:      21.  22.  23.  24.  25.  26.  27.  28.  29.  30.  31.  32.  33.  34.  35.  36.  37.  38.  39.  40.
(PID.TID 0000.0001)  Levels:      41.  42.  43.  44.  45.  46.  47.  48.  49.  50.
(PID.TID 0000.0001) DIAGNOSTICS_SET_POINTERS: Set levels for Outp.Stream: state_3d_set4
(PID.TID 0000.0001)  Levels:       1.   2.   3.   4.   5.   6.   7.   8.   9.  10.  11.  12.  13.  14.  15.  16.  17.  18.  19.  20.
(PID.TID 0000.0001)  Levels:      21.  22.  23.  24.  25.  26.  27.  28.  29.  30.  31.  32.  33.  34.  35.  36.  37.  38.  39.  40.
(PID.TID 0000.0001)  Levels:      41.  42.  43.  44.  45.  46.  47.  48.  49.  50.
(PID.TID 0000.0001) DIAGNOSTICS_SET_POINTERS: Set levels for Outp.Stream: iceDiag
(PID.TID 0000.0001)  Levels:       1.
(PID.TID 0000.0001) DIAGNOSTICS_SET_POINTERS: done
(PID.TID 0000.0001) ------------------------------------------------------------
(PID.TID 0000.0001) DIAGSTATS_SET_REGIONS: define   0 regions:
(PID.TID 0000.0001) ------------------------------------------------------------
(PID.TID 0000.0001) SETDIAG: Allocate  1 Levels for Stats-Diag #    23 ETAN
(PID.TID 0000.0001) SETDIAG: Allocate 50 Levels for Stats-Diag #    26 THETA
(PID.TID 0000.0001) SETDIAG: Allocate 50 Levels for Stats-Diag #    27 SALT
(PID.TID 0000.0001) SETDIAG: Allocate  1 Levels for Stats-Diag #    86 oceQnet
(PID.TID 0000.0001) SETDIAG: Allocate  1 Levels for Stats-Diag #    84 oceFWflx
(PID.TID 0000.0001) SETDIAG: Allocate  1 Levels for Stats-Diag #    85 oceSflux
(PID.TID 0000.0001) SETDIAG: Allocate  1 Levels for Stats-Diag #   204 SIarea
(PID.TID 0000.0001) SETDIAG: Allocate  1 Levels for Stats-Diag #   207 SIheff
(PID.TID 0000.0001) SETDIAG: Allocate  1 Levels for Stats-Diag #   209 SIhsnow
(PID.TID 0000.0001) SETDIAG: Allocate  1 Levels for Stats-Diag #    83 sIceLoad
(PID.TID 0000.0001) SETDIAG: Allocate  1 Levels for Stats-Diag #   213 SIuice
(PID.TID 0000.0001) SETDIAG: Allocate  1 Levels for Stats-Diag #   214 SIvice
(PID.TID 0000.0001) SETDIAG: Allocate  1 Levels for Stats-Diag #   215 SItaux
(PID.TID 0000.0001) SETDIAG: Allocate  1 Levels for Stats-Diag #   216 SItauy
(PID.TID 0000.0001) SETDIAG: Allocate  5 Levels for Stats-Diag #   275 SIareaN
(PID.TID 0000.0001) SETDIAG: Allocate  5 Levels for Stats-Diag #   274 SIheffN
(PID.TID 0000.0001) SETDIAG: Allocate  5 Levels for Stats-Diag #   276 SIhsnowN
(PID.TID 0000.0001) SETDIAG: Allocate  5 Levels for Stats-Diag #   280 SIqSnow
(PID.TID 0000.0001) SETDIAG: Allocate 20 Levels for Stats-Diag #   279 SIqIce
(PID.TID 0000.0001) SETDIAG: Allocate  5 Levels for Stats-Diag #   281 SImeltPd
(PID.TID 0000.0001) SETDIAG: Allocate  5 Levels for Stats-Diag #   278 SItIces
(PID.TID 0000.0001) SETDIAG: Allocate  5 Levels for Stats-Diag #   282 SIiceAge
(PID.TID 0000.0001) SETDIAG: Allocate  5 Levels for Stats-Diag #   283 SI_dArea
(PID.TID 0000.0001) SETDIAG: Allocate  5 Levels for Stats-Diag #   284 SI_dHeff
(PID.TID 0000.0001) SETDIAG: Allocate  5 Levels for Stats-Diag #   285 SI_dHsnw
(PID.TID 0000.0001) SETDIAG: Allocate  5 Levels for Stats-Diag #   288 SI_dQSnw
(PID.TID 0000.0001) SETDIAG: Allocate 20 Levels for Stats-Diag #   287 SI_dQIce
(PID.TID 0000.0001)   space allocated for all stats-diags:     207 levels
(PID.TID 0000.0001) DIAGSTATS_SET_POINTERS: done
(PID.TID 0000.0001) ------------------------------------------------------------
(PID.TID 0000.0001) DIAGSTATS_INI_IO: open file: dynStDiag.0000174588.txt , unit=    37
(PID.TID 0000.0001) DIAGSTATS_INI_IO: open file: iceStDiag.0000174588.txt , unit=    38
(PID.TID 0000.0001) INI_GLOBAL_DOMAIN: Found   0 CS-corner Pts in the domain
(PID.TID 0000.0001) %MON fCori_max                    =   1.4584096177006E-04
(PID.TID 0000.0001) %MON fCori_min                    =  -1.4576251334415E-04
(PID.TID 0000.0001) %MON fCori_mean                   =  -8.7654439315739E-06
(PID.TID 0000.0001) %MON fCori_sd                     =   1.0383886522938E-04
(PID.TID 0000.0001) %MON fCoriG_max                   =   1.4584247033981E-04
(PID.TID 0000.0001) %MON fCoriG_min                   =  -1.4575575421020E-04
(PID.TID 0000.0001) %MON fCoriG_mean                  =  -8.7205865294813E-06
(PID.TID 0000.0001) %MON fCoriG_sd                    =   1.0386686226587E-04
(PID.TID 0000.0001) %MON fCoriCos_max                 =   1.4584158744890E-04
(PID.TID 0000.0001) %MON fCoriCos_min                 =   6.6334365221135E-07
(PID.TID 0000.0001) %MON fCoriCos_mean                =   9.3676196717296E-05
(PID.TID 0000.0001) %MON fCoriCos_sd                  =   4.0440739161864E-05
(PID.TID 0000.0001) INI_CG2D: CG2D normalisation factor =  7.1522409280111305E-05
(PID.TID 0000.0001) 
(PID.TID 0000.0001) // =======================================================
(PID.TID 0000.0001) // Model configuration
(PID.TID 0000.0001) // =======================================================
(PID.TID 0000.0001) //
(PID.TID 0000.0001) // "Physical" paramters ( PARM01 in namelist )
(PID.TID 0000.0001) //
(PID.TID 0000.0001) buoyancyRelation = /* Type of relation to get Buoyancy */
(PID.TID 0000.0001)               'OCEANIC'
(PID.TID 0000.0001)     ;
(PID.TID 0000.0001) fluidIsAir   =  /* fluid major constituent is Air */
(PID.TID 0000.0001)                   F
(PID.TID 0000.0001)     ;
(PID.TID 0000.0001) fluidIsWater =  /* fluid major constituent is Water */
(PID.TID 0000.0001)                   T
(PID.TID 0000.0001)     ;
(PID.TID 0000.0001) usingPCoords =  /* use p (or p*) vertical coordinate */
(PID.TID 0000.0001)                   F
(PID.TID 0000.0001)     ;
(PID.TID 0000.0001) usingZCoords =  /* use z (or z*) vertical coordinate */
(PID.TID 0000.0001)                   T
(PID.TID 0000.0001)     ;
(PID.TID 0000.0001) tRef =   /* Reference temperature profile ( oC or K ) */
(PID.TID 0000.0001)     3 @  2.300000000000000E+01,             /* K =  1:  3 */
(PID.TID 0000.0001)     3 @  2.200000000000000E+01,             /* K =  4:  6 */
(PID.TID 0000.0001)                 2.100000000000000E+01,      /* K =  7 */
(PID.TID 0000.0001)     2 @  2.000000000000000E+01,             /* K =  8:  9 */
(PID.TID 0000.0001)                 1.900000000000000E+01,      /* K = 10 */
(PID.TID 0000.0001)     2 @  1.800000000000000E+01,             /* K = 11: 12 */
(PID.TID 0000.0001)                 1.700000000000000E+01,      /* K = 13 */
(PID.TID 0000.0001)     2 @  1.600000000000000E+01,             /* K = 14: 15 */
(PID.TID 0000.0001)                 1.500000000000000E+01,      /* K = 16 */
(PID.TID 0000.0001)                 1.400000000000000E+01,      /* K = 17 */
(PID.TID 0000.0001)                 1.300000000000000E+01,      /* K = 18 */
(PID.TID 0000.0001)                 1.200000000000000E+01,      /* K = 19 */
(PID.TID 0000.0001)                 1.100000000000000E+01,      /* K = 20 */
(PID.TID 0000.0001)     2 @  9.000000000000000E+00,             /* K = 21: 22 */
(PID.TID 0000.0001)                 8.000000000000000E+00,      /* K = 23 */
(PID.TID 0000.0001)                 7.000000000000000E+00,      /* K = 24 */
(PID.TID 0000.0001)     2 @  6.000000000000000E+00,             /* K = 25: 26 */
(PID.TID 0000.0001)     2 @  5.000000000000000E+00,             /* K = 27: 28 */
(PID.TID 0000.0001)     3 @  4.000000000000000E+00,             /* K = 29: 31 */
(PID.TID 0000.0001)     3 @  3.000000000000000E+00,             /* K = 32: 34 */
(PID.TID 0000.0001)     4 @  2.000000000000000E+00,             /* K = 35: 38 */
(PID.TID 0000.0001)    12 @  1.000000000000000E+00              /* K = 39: 50 */
(PID.TID 0000.0001)     ;
(PID.TID 0000.0001) sRef =   /* Reference salinity profile ( psu ) */
(PID.TID 0000.0001)    50 @  3.450000000000000E+01              /* K =  1: 50 */
(PID.TID 0000.0001)     ;
(PID.TID 0000.0001) useStrainTensionVisc= /* Use StrainTension Form of Viscous Operator */
(PID.TID 0000.0001)                   F
(PID.TID 0000.0001)     ;
(PID.TID 0000.0001) useVariableVisc = /* Use variable horizontal viscosity */
(PID.TID 0000.0001)                   T
(PID.TID 0000.0001)     ;
(PID.TID 0000.0001) useHarmonicVisc = /* Use harmonic horizontal viscosity */
(PID.TID 0000.0001)                   F
(PID.TID 0000.0001)     ;
(PID.TID 0000.0001) useBiharmonicVisc= /* Use biharmonic horiz.  viscosity */
(PID.TID 0000.0001)                   T
(PID.TID 0000.0001)     ;
(PID.TID 0000.0001) useSmag3D = /* Use isotropic 3-D Smagorinsky viscosity */
(PID.TID 0000.0001)                   F
(PID.TID 0000.0001)     ;
(PID.TID 0000.0001) viscAh  =   /* Lateral harmonic viscosity ( m^2/s ) */
(PID.TID 0000.0001)                 0.000000000000000E+00
(PID.TID 0000.0001)     ;
(PID.TID 0000.0001) viscAhMax = /* Maximum lateral harmonic viscosity ( m^2/s ) */
(PID.TID 0000.0001)                 1.000000000000000E+21
(PID.TID 0000.0001)     ;
(PID.TID 0000.0001) viscAhGrid = /* Grid dependent lateral harmonic viscosity ( non-dim. ) */
(PID.TID 0000.0001)                 0.000000000000000E+00
(PID.TID 0000.0001)     ;
(PID.TID 0000.0001) useFullLeith = /* Use Full Form of Leith Viscosity on/off flag*/
(PID.TID 0000.0001)                   F
(PID.TID 0000.0001)     ;
(PID.TID 0000.0001) useAreaViscLength = /* Use area for visc length instead of geom. mean*/
(PID.TID 0000.0001)                   T
(PID.TID 0000.0001)     ;
(PID.TID 0000.0001) viscC2leith = /* Leith harmonic visc. factor (on grad(vort),non-dim.) */
(PID.TID 0000.0001)                 0.000000000000000E+00
(PID.TID 0000.0001)     ;
(PID.TID 0000.0001) viscC2leithD = /* Leith harmonic viscosity factor (on grad(div),non-dim.)*/
(PID.TID 0000.0001)                 0.000000000000000E+00
(PID.TID 0000.0001)     ;
(PID.TID 0000.0001) viscC2smag = /* Smagorinsky harmonic viscosity factor (non-dim.) */
(PID.TID 0000.0001)                 0.000000000000000E+00
(PID.TID 0000.0001)     ;
(PID.TID 0000.0001) viscA4  =   /* Lateral biharmonic viscosity ( m^4/s ) */
(PID.TID 0000.0001)                 0.000000000000000E+00
(PID.TID 0000.0001)     ;
(PID.TID 0000.0001) viscA4Max = /* Maximum biharmonic viscosity ( m^2/s ) */
(PID.TID 0000.0001)                 1.000000000000000E+21
(PID.TID 0000.0001)     ;
(PID.TID 0000.0001) viscA4Grid = /* Grid dependent biharmonic viscosity ( non-dim. ) */
(PID.TID 0000.0001)                 0.000000000000000E+00
(PID.TID 0000.0001)     ;
(PID.TID 0000.0001) viscC4leith = /* Leith biharm viscosity factor (on grad(vort), non-dim.)*/
(PID.TID 0000.0001)                 2.000000000000000E+00
(PID.TID 0000.0001)     ;
(PID.TID 0000.0001) viscC4leithD = /* Leith biharm viscosity factor (on grad(div), non-dim.) */
(PID.TID 0000.0001)                 2.000000000000000E+00
(PID.TID 0000.0001)     ;
(PID.TID 0000.0001) viscC4Smag = /* Smagorinsky biharm viscosity factor (non-dim) */
(PID.TID 0000.0001)                 0.000000000000000E+00
(PID.TID 0000.0001)     ;
(PID.TID 0000.0001) no_slip_sides =  /* Viscous BCs: No-slip sides */
(PID.TID 0000.0001)                   F
(PID.TID 0000.0001)     ;
(PID.TID 0000.0001) sideDragFactor = /* side-drag scaling factor (non-dim) */
(PID.TID 0000.0001)                 0.000000000000000E+00
(PID.TID 0000.0001)     ;
(PID.TID 0000.0001) viscArNr = /* vertical profile of vertical viscosity ( m^2/s )*/
(PID.TID 0000.0001)    50 @  5.661400000000000E-04              /* K =  1: 50 */
(PID.TID 0000.0001)     ;
(PID.TID 0000.0001) no_slip_bottom =  /* Viscous BCs: No-slip bottom */
(PID.TID 0000.0001)                   T
(PID.TID 0000.0001)     ;
(PID.TID 0000.0001) bottomVisc_pCell = /* Partial-cell in bottom Visc. BC */
(PID.TID 0000.0001)                   F
(PID.TID 0000.0001)     ;
(PID.TID 0000.0001) bottomDragLinear = /* linear bottom-drag coefficient ( m/s ) */
(PID.TID 0000.0001)                 0.000000000000000E+00
(PID.TID 0000.0001)     ;
[...]
(PID.TID 0000.0001) %MON seaice_hsnow_sd              =   6.6664699164891E-02
(PID.TID 0000.0001) %MON seaice_hsnow_del2            =   3.3343693657217E-04
(PID.TID 0000.0001) // =======================================================
(PID.TID 0000.0001) // End MONITOR SEAICE statistics
(PID.TID 0000.0001) // =======================================================
(PID.TID 0000.0001) // =======================================================
(PID.TID 0000.0001) // Begin MONITOR dynamic field statistics
(PID.TID 0000.0001) // =======================================================
(PID.TID 0000.0001) %MON time_tsnumber                =                174971
(PID.TID 0000.0001) %MON time_secondsf                =   7.8736950000000E+07
(PID.TID 0000.0001) %MON dynstat_eta_max              =   2.6779040759868E+00
(PID.TID 0000.0001) %MON dynstat_eta_min              =  -1.0512696183260E+01
(PID.TID 0000.0001) %MON dynstat_eta_mean             =   3.8600028769695E-02
(PID.TID 0000.0001) %MON dynstat_eta_sd               =   1.1410164893298E+00
(PID.TID 0000.0001) %MON dynstat_eta_del2             =   2.0128889530745E-03
(PID.TID 0000.0001) %MON dynstat_uvel_max             =   1.7515233887997E+00
(PID.TID 0000.0001) %MON dynstat_uvel_min             =  -2.2586598976695E+00
(PID.TID 0000.0001) %MON dynstat_uvel_mean            =   6.6730735259565E-03
(PID.TID 0000.0001) %MON dynstat_uvel_sd              =   6.4536435280227E-02
(PID.TID 0000.0001) %MON dynstat_uvel_del2            =   5.3530583181701E-05
(PID.TID 0000.0001) %MON dynstat_vvel_max             =   2.1619197176769E+00
(PID.TID 0000.0001) %MON dynstat_vvel_min             =  -1.5700678845225E+00
(PID.TID 0000.0001) %MON dynstat_vvel_mean            =   1.4646962260567E-03
(PID.TID 0000.0001) %MON dynstat_vvel_sd              =   6.8657639522166E-02
(PID.TID 0000.0001) %MON dynstat_vvel_del2            =   5.2320114829204E-05
(PID.TID 0000.0001) %MON dynstat_wvel_max             =   1.4953345676405E-02
(PID.TID 0000.0001) %MON dynstat_wvel_min             =  -1.3178771260149E-02
(PID.TID 0000.0001) %MON dynstat_wvel_mean            =  -9.8343129340834E-07
(PID.TID 0000.0001) %MON dynstat_wvel_sd              =   2.3489159526713E-04
(PID.TID 0000.0001) %MON dynstat_wvel_del2            =   4.5598265166948E-07
(PID.TID 0000.0001) %MON dynstat_theta_max            =   3.2337550548253E+01
(PID.TID 0000.0001) %MON dynstat_theta_min            =  -2.0226538029544E+00
(PID.TID 0000.0001) %MON dynstat_theta_mean           =   3.5919758654269E+00
(PID.TID 0000.0001) %MON dynstat_theta_sd             =   4.4419501100269E+00
(PID.TID 0000.0001) %MON dynstat_theta_del2           =   1.3384797081242E-04
(PID.TID 0000.0001) %MON dynstat_salt_max             =   4.0655989268735E+01
(PID.TID 0000.0001) %MON dynstat_salt_min             =   1.5888048785349E+01
(PID.TID 0000.0001) %MON dynstat_salt_mean            =   3.4724787709391E+01
(PID.TID 0000.0001) %MON dynstat_salt_sd              =   3.7984279243821E-01
(PID.TID 0000.0001) %MON dynstat_salt_del2            =   6.1258405085839E-05
(PID.TID 0000.0001) %MON dynstat_sst_max              =   3.2337550548253E+01
(PID.TID 0000.0001) %MON dynstat_sst_min              =  -2.0226538029544E+00
(PID.TID 0000.0001) %MON dynstat_sst_mean             =   1.8184778372515E+01
(PID.TID 0000.0001) %MON dynstat_sst_sd               =   1.0228746310117E+01
(PID.TID 0000.0001) %MON dynstat_sst_del2             =   1.0946753321722E-03
(PID.TID 0000.0001) %MON dynstat_sss_max              =   3.9464659441285E+01
(PID.TID 0000.0001) %MON dynstat_sss_min              =   1.5888048785349E+01
(PID.TID 0000.0001) %MON dynstat_sss_mean             =   3.4639975325828E+01
(PID.TID 0000.0001) %MON dynstat_sss_sd               =   1.3064561329036E+00
(PID.TID 0000.0001) %MON dynstat_sss_del2             =   1.4840997629773E-03
(PID.TID 0000.0001) %MON forcing_qnet_max             =   6.3128737328014E+03
(PID.TID 0000.0001) %MON forcing_qnet_min             =  -2.1120842698043E+03
(PID.TID 0000.0001) %MON forcing_qnet_mean            =  -3.4478605827930E+01
(PID.TID 0000.0001) %MON forcing_qnet_sd              =   2.2490662746603E+02
(PID.TID 0000.0001) %MON forcing_qnet_del2            =   5.5627759125894E-01
(PID.TID 0000.0001) %MON forcing_qsw_max              =   0.0000000000000E+00
(PID.TID 0000.0001) %MON forcing_qsw_min              =  -1.1172249218098E+02
(PID.TID 0000.0001) %MON forcing_qsw_mean             =  -2.3655808999980E+01
(PID.TID 0000.0001) %MON forcing_qsw_sd               =   3.3121916652035E+01
(PID.TID 0000.0001) %MON forcing_qsw_del2             =   2.3148294429993E-02
(PID.TID 0000.0001) %MON forcing_empmr_max            =   2.0746918395162E-02
(PID.TID 0000.0001) %MON forcing_empmr_min            =  -5.2183192223310E-02
(PID.TID 0000.0001) %MON forcing_empmr_mean           =  -7.2453626719704E-07
(PID.TID 0000.0001) %MON forcing_empmr_sd             =   3.1928394907076E-04
(PID.TID 0000.0001) %MON forcing_empmr_del2           =   3.6708191285219E-06
(PID.TID 0000.0001) %MON forcing_fu_max               =   1.0416369079886E+00
(PID.TID 0000.0001) %MON forcing_fu_min               =  -1.1664362719292E+00
(PID.TID 0000.0001) %MON forcing_fu_mean              =   9.4305724771633E-03
(PID.TID 0000.0001) %MON forcing_fu_sd                =   1.2646954106601E-01
(PID.TID 0000.0001) %MON forcing_fu_del2              =   1.6897396535605E-04
(PID.TID 0000.0001) %MON forcing_fv_max               =   1.1055117249489E+00
(PID.TID 0000.0001) %MON forcing_fv_min               =  -1.1334071159363E+00
(PID.TID 0000.0001) %MON forcing_fv_mean              =   2.0104168042114E-03
(PID.TID 0000.0001) %MON forcing_fv_sd                =   1.2463053392843E-01
(PID.TID 0000.0001) %MON forcing_fv_del2              =   1.6854720540332E-04
(PID.TID 0000.0001) %MON trAdv_CFL_u_max              =   1.9353945875008E-02
(PID.TID 0000.0001) %MON trAdv_CFL_v_max              =   2.0798842690457E-02
(PID.TID 0000.0001) %MON trAdv_CFL_w_max              =   8.4899373735170E-02
(PID.TID 0000.0001) %MON advcfl_uvel_max              =   1.9612831861240E-02
(PID.TID 0000.0001) %MON advcfl_vvel_max              =   2.0731820891120E-02
(PID.TID 0000.0001) %MON advcfl_wvel_max              =   7.9860295206744E-02
(PID.TID 0000.0001) %MON advcfl_W_hf_max              =   8.4899373735170E-02
(PID.TID 0000.0001) %MON pe_b_mean                    =   1.6099940462444E-03
(PID.TID 0000.0001) %MON ke_max                       =   2.1777213000504E+00
(PID.TID 0000.0001) %MON ke_mean                      =   4.3038092268152E-03
(PID.TID 0000.0001) %MON ke_vol                       =   1.3350064351420E+18
(PID.TID 0000.0001) %MON vort_r_min                   =  -7.1342288524505E-05
(PID.TID 0000.0001) %MON vort_r_max                   =   6.9447767986998E-05
(PID.TID 0000.0001) %MON vort_a_mean                  =  -1.9725075124301E-05
(PID.TID 0000.0001) %MON vort_a_sd                    =   7.4546533617237E-05
(PID.TID 0000.0001) %MON vort_p_mean                  =  -2.1669079911394E-05
(PID.TID 0000.0001) %MON vort_p_sd                    =   9.3621937147696E-05
(PID.TID 0000.0001) %MON surfExpan_theta_mean         =  -3.3956001914873E-05
(PID.TID 0000.0001) %MON surfExpan_salt_mean          =  -7.4326006876917E-05
(PID.TID 0000.0001) // =======================================================
(PID.TID 0000.0001) // End MONITOR dynamic field statistics
(PID.TID 0000.0001) // =======================================================
(PID.TID 0000.0001) // =======================================================
(PID.TID 0000.0001) // Begin MONITOR SEAICE statistics
(PID.TID 0000.0001) // =======================================================
(PID.TID 0000.0001) %MON seaice_tsnumber              =                174971
(PID.TID 0000.0001) %MON seaice_time_sec              =   7.8736950000000E+07
(PID.TID 0000.0001) %MON seaice_uice_max              =   1.2606419133993E+00
(PID.TID 0000.0001) %MON seaice_uice_min              =  -1.2012868603640E+00
(PID.TID 0000.0001) %MON seaice_uice_mean             =   7.8095373499779E-03
(PID.TID 0000.0001) %MON seaice_uice_sd               =   1.5240644272565E-01
(PID.TID 0000.0001) %MON seaice_uice_del2             =   4.1464181249409E-04
(PID.TID 0000.0001) %MON seaice_vice_max              =   1.3249335407938E+00
(PID.TID 0000.0001) %MON seaice_vice_min              =  -1.5692041271947E+00
(PID.TID 0000.0001) %MON seaice_vice_mean             =  -2.0839651702560E-02
(PID.TID 0000.0001) %MON seaice_vice_sd               =   1.7262475757447E-01
(PID.TID 0000.0001) %MON seaice_vice_del2             =   4.0403253622166E-04
(PID.TID 0000.0001) %MON seaice_area_max              =   1.0012604489850E+00
(PID.TID 0000.0001) %MON seaice_area_min              =   0.0000000000000E+00
(PID.TID 0000.0001) %MON seaice_area_mean             =   5.7924416385905E-02
(PID.TID 0000.0001) %MON seaice_area_sd               =   2.2080224126732E-01
(PID.TID 0000.0001) %MON seaice_area_del2             =   2.8365618774879E-04
(PID.TID 0000.0001) %MON seaice_heff_max              =   9.9470702972693E+00
(PID.TID 0000.0001) %MON seaice_heff_min              =   0.0000000000000E+00
(PID.TID 0000.0001) %MON seaice_heff_mean             =   1.4905944852228E-01
(PID.TID 0000.0001) %MON seaice_heff_sd               =   7.1838118575849E-01
(PID.TID 0000.0001) %MON seaice_heff_del2             =   1.2812374372335E-03
(PID.TID 0000.0001) %MON seaice_hsnow_max             =   3.2855371282015E+00
(PID.TID 0000.0001) %MON seaice_hsnow_min             =   0.0000000000000E+00
(PID.TID 0000.0001) %MON seaice_hsnow_mean            =   1.2540098559012E-02
(PID.TID 0000.0001) %MON seaice_hsnow_sd              =   6.6654854820455E-02
(PID.TID 0000.0001) %MON seaice_hsnow_del2            =   3.3320047052343E-04
(PID.TID 0000.0001) // =======================================================
(PID.TID 0000.0001) // End MONITOR SEAICE statistics
(PID.TID 0000.0001) // =======================================================
(PID.TID 0000.0001) // =======================================================
(PID.TID 0000.0001) // Begin MONITOR dynamic field statistics
(PID.TID 0000.0001) // =======================================================
(PID.TID 0000.0001) %MON time_tsnumber                =                174972
(PID.TID 0000.0001) %MON time_secondsf                =   7.8737400000000E+07
(PID.TID 0000.0001) %MON dynstat_eta_max              =   2.7020950790445E+00
(PID.TID 0000.0001) %MON dynstat_eta_min              =  -1.0504136078777E+01
(PID.TID 0000.0001) %MON dynstat_eta_mean             =   3.7667165489026E-02
(PID.TID 0000.0001) %MON dynstat_eta_sd               =   1.1435052737827E+00
(PID.TID 0000.0001) %MON dynstat_eta_del2             =   2.0129224511002E-03
(PID.TID 0000.0001) %MON dynstat_uvel_max             =   1.7563292537771E+00
(PID.TID 0000.0001) %MON dynstat_uvel_min             =  -2.2539593504968E+00
(PID.TID 0000.0001) %MON dynstat_uvel_mean            =   6.6500929155432E-03
(PID.TID 0000.0001) %MON dynstat_uvel_sd              =   6.4818730099791E-02
(PID.TID 0000.0001) %MON dynstat_uvel_del2            =   5.3669219804222E-05
(PID.TID 0000.0001) %MON dynstat_vvel_max             =   2.1651423778985E+00
(PID.TID 0000.0001) %MON dynstat_vvel_min             =  -1.5709157748599E+00
(PID.TID 0000.0001) %MON dynstat_vvel_mean            =   1.4721774519704E-03
(PID.TID 0000.0001) %MON dynstat_vvel_sd              =   6.8964182524890E-02
(PID.TID 0000.0001) %MON dynstat_vvel_del2            =   5.2457545186465E-05
(PID.TID 0000.0001) %MON dynstat_wvel_max             =   1.4980451764817E-02
(PID.TID 0000.0001) %MON dynstat_wvel_min             =  -1.3225774918341E-02
(PID.TID 0000.0001) %MON dynstat_wvel_mean            =  -9.7594226683480E-07
(PID.TID 0000.0001) %MON dynstat_wvel_sd              =   2.3551875630700E-04
(PID.TID 0000.0001) %MON dynstat_wvel_del2            =   4.5681108543635E-07
(PID.TID 0000.0001) %MON dynstat_theta_max            =   3.2336993470303E+01
(PID.TID 0000.0001) %MON dynstat_theta_min            =  -2.0226261630899E+00
(PID.TID 0000.0001) %MON dynstat_theta_mean           =   3.5919807633245E+00
(PID.TID 0000.0001) %MON dynstat_theta_sd             =   4.4419650348369E+00
(PID.TID 0000.0001) %MON dynstat_theta_del2           =   1.3392185681988E-04
(PID.TID 0000.0001) %MON dynstat_salt_max             =   4.0655989268519E+01
(PID.TID 0000.0001) %MON dynstat_salt_min             =   1.5887508948468E+01
(PID.TID 0000.0001) %MON dynstat_salt_mean            =   3.4724787971503E+01
(PID.TID 0000.0001) %MON dynstat_salt_sd              =   3.7984421200306E-01
(PID.TID 0000.0001) %MON dynstat_salt_del2            =   6.1238273033601E-05
(PID.TID 0000.0001) %MON dynstat_sst_max              =   3.2336993470303E+01
(PID.TID 0000.0001) %MON dynstat_sst_min              =  -2.0226261630899E+00
(PID.TID 0000.0001) %MON dynstat_sst_mean             =   1.8184980130461E+01
(PID.TID 0000.0001) %MON dynstat_sst_sd               =   1.0229170970071E+01
(PID.TID 0000.0001) %MON dynstat_sst_del2             =   1.0945735763188E-03
(PID.TID 0000.0001) %MON dynstat_sss_max              =   3.9463765355166E+01
(PID.TID 0000.0001) %MON dynstat_sss_min              =   1.5887508948468E+01
(PID.TID 0000.0001) %MON dynstat_sss_mean             =   3.4639964648319E+01
(PID.TID 0000.0001) %MON dynstat_sss_sd               =   1.3064831265029E+00
(PID.TID 0000.0001) %MON dynstat_sss_del2             =   1.4838612724213E-03
(PID.TID 0000.0001) %MON forcing_qnet_max             =   4.0002451908485E+03
(PID.TID 0000.0001) %MON forcing_qnet_min             =  -1.7913067559996E+03
(PID.TID 0000.0001) %MON forcing_qnet_mean            =  -3.3827938033519E+01
(PID.TID 0000.0001) %MON forcing_qnet_sd              =   2.2298239474977E+02
(PID.TID 0000.0001) %MON forcing_qnet_del2            =   4.7611048482211E-01
(PID.TID 0000.0001) %MON forcing_qsw_max              =   0.0000000000000E+00
(PID.TID 0000.0001) %MON forcing_qsw_min              =  -1.1180883359894E+02
(PID.TID 0000.0001) %MON forcing_qsw_mean             =  -2.3524491996077E+01
(PID.TID 0000.0001) %MON forcing_qsw_sd               =   3.3029867748041E+01
(PID.TID 0000.0001) %MON forcing_qsw_del2             =   2.3249469625570E-02
(PID.TID 0000.0001) %MON forcing_empmr_max            =   2.1061204373837E-02
(PID.TID 0000.0001) %MON forcing_empmr_min            =  -5.3824104368687E-02
(PID.TID 0000.0001) %MON forcing_empmr_mean           =  -1.2755944648745E-07
(PID.TID 0000.0001) %MON forcing_empmr_sd             =   2.8716528709670E-04
(PID.TID 0000.0001) %MON forcing_empmr_del2           =   3.3436675452969E-06
(PID.TID 0000.0001) %MON forcing_fu_max               =   1.0394991333320E+00
(PID.TID 0000.0001) %MON forcing_fu_min               =  -1.1665994567853E+00
(PID.TID 0000.0001) %MON forcing_fu_mean              =   9.4115428734182E-03
(PID.TID 0000.0001) %MON forcing_fu_sd                =   1.2652143484014E-01
(PID.TID 0000.0001) %MON forcing_fu_del2              =   1.6902041063097E-04
(PID.TID 0000.0001) %MON forcing_fv_max               =   1.1015509963036E+00
(PID.TID 0000.0001) %MON forcing_fv_min               =  -1.1266794800758E+00
(PID.TID 0000.0001) %MON forcing_fv_mean              =   2.0608575967357E-03
(PID.TID 0000.0001) %MON forcing_fv_sd                =   1.2462536454718E-01
(PID.TID 0000.0001) %MON forcing_fv_del2              =   1.6837989758969E-04
(PID.TID 0000.0001) %MON trAdv_CFL_u_max              =   1.9321035366972E-02
(PID.TID 0000.0001) %MON trAdv_CFL_v_max              =   2.0850481612045E-02
(PID.TID 0000.0001) %MON trAdv_CFL_w_max              =   8.4518841359571E-02
(PID.TID 0000.0001) %MON advcfl_uvel_max              =   1.9579481129314E-02
(PID.TID 0000.0001) %MON advcfl_vvel_max              =   2.0783293412420E-02
(PID.TID 0000.0001) %MON advcfl_wvel_max              =   7.9499147004095E-02
(PID.TID 0000.0001) %MON advcfl_W_hf_max              =   8.4518841359571E-02
(PID.TID 0000.0001) %MON pe_b_mean                    =   1.5911508101987E-03
(PID.TID 0000.0001) %MON ke_max                       =   2.1748551263567E+00
(PID.TID 0000.0001) %MON ke_mean                      =   4.3416224093493E-03
(PID.TID 0000.0001) %MON ke_vol                       =   1.3350064351420E+18
(PID.TID 0000.0001) %MON vort_r_min                   =  -7.1292374226309E-05
(PID.TID 0000.0001) %MON vort_r_max                   =   6.9337380619672E-05
(PID.TID 0000.0001) %MON vort_a_mean                  =  -1.9725075110292E-05
(PID.TID 0000.0001) %MON vort_a_sd                    =   7.4546597903067E-05
(PID.TID 0000.0001) %MON vort_p_mean                  =  -2.1669079896005E-05
(PID.TID 0000.0001) %MON vort_p_sd                    =   9.3621927980812E-05
(PID.TID 0000.0001) %MON surfExpan_theta_mean         =  -3.2712102815015E-05
(PID.TID 0000.0001) %MON surfExpan_salt_mean          =  -7.3990705068356E-05
(PID.TID 0000.0001) // =======================================================
(PID.TID 0000.0001) // End MONITOR dynamic field statistics
(PID.TID 0000.0001) // =======================================================
(PID.TID 0000.0001) // =======================================================
(PID.TID 0000.0001) // Begin MONITOR SEAICE statistics
(PID.TID 0000.0001) // =======================================================
(PID.TID 0000.0001) %MON seaice_tsnumber              =                174972
(PID.TID 0000.0001) %MON seaice_time_sec              =   7.8737400000000E+07
(PID.TID 0000.0001) %MON seaice_uice_max              =   1.2593042868122E+00
(PID.TID 0000.0001) %MON seaice_uice_min              =  -1.2042246316252E+00
(PID.TID 0000.0001) %MON seaice_uice_mean             =   7.7463732320580E-03
(PID.TID 0000.0001) %MON seaice_uice_sd               =   1.5252276203413E-01
(PID.TID 0000.0001) %MON seaice_uice_del2             =   4.1511483783481E-04
(PID.TID 0000.0001) %MON seaice_vice_max              =   1.3194019717623E+00
(PID.TID 0000.0001) %MON seaice_vice_min              =  -1.5700678845225E+00
(PID.TID 0000.0001) %MON seaice_vice_mean             =  -2.0756268218418E-02
(PID.TID 0000.0001) %MON seaice_vice_sd               =   1.7289343009357E-01
(PID.TID 0000.0001) %MON seaice_vice_del2             =   4.0440351431534E-04
(PID.TID 0000.0001) %MON seaice_area_max              =   1.0012808482690E+00
(PID.TID 0000.0001) %MON seaice_area_min              =   0.0000000000000E+00
(PID.TID 0000.0001) %MON seaice_area_mean             =   5.7928784003827E-02
(PID.TID 0000.0001) %MON seaice_area_sd               =   2.2080343038002E-01
(PID.TID 0000.0001) %MON seaice_area_del2             =   2.8369126836818E-04
(PID.TID 0000.0001) %MON seaice_heff_max              =   9.9470674477413E+00
(PID.TID 0000.0001) %MON seaice_heff_min              =   0.0000000000000E+00
(PID.TID 0000.0001) %MON seaice_heff_mean             =   1.4905638192530E-01
(PID.TID 0000.0001) %MON seaice_heff_sd               =   7.1836913231007E-01
(PID.TID 0000.0001) %MON seaice_heff_del2             =   1.2807852216294E-03
(PID.TID 0000.0001) %MON seaice_hsnow_max             =   3.2855361348474E+00
(PID.TID 0000.0001) %MON seaice_hsnow_min             =   0.0000000000000E+00
(PID.TID 0000.0001) %MON seaice_hsnow_mean            =   1.2539601291087E-02
(PID.TID 0000.0001) %MON seaice_hsnow_sd              =   6.6645015847763E-02
(PID.TID 0000.0001) %MON seaice_hsnow_del2            =   3.3296470950342E-04
(PID.TID 0000.0001) // =======================================================
(PID.TID 0000.0001) // End MONITOR SEAICE statistics
(PID.TID 0000.0001) // =======================================================
(PID.TID 0000.0001) DIAGSTATS_CLOSE_IO: close file: dynStDiag.0000174588.txt , unit=    37
(PID.TID 0000.0001) DIAGSTATS_CLOSE_IO: close file: iceStDiag.0000174588.txt , unit=    38
(PID.TID 0000.0001) %CHECKPOINT    174972 ckptA
