(PID.TID 0000.0001) 
(PID.TID 0000.0001) // ======================================================
(PID.TID 0000.0001) //                      MITgcm UV
(PID.TID 0000.0001) //                      =========
(PID.TID 0000.0001) // ======================================================
(PID.TID 0000.0001) // execution environment starting up...
(PID.TID 0000.0001) 
(PID.TID 0000.0001) // MITgcmUV version:  checkpoint66k
(PID.TID 0000.0001) // Build user:        dmenemen
(PID.TID 0000.0001) // Build host:        borgo113
(PID.TID 0000.0001) // Build date:        Thu Sep 28 12:32:49 EDT 2017
(PID.TID 0000.0001) 
(PID.TID 0000.0001) // =======================================================
(PID.TID 0000.0001) // Execution Environment parameter file "eedata"
(PID.TID 0000.0001) // =======================================================
(PID.TID 0000.0001) ># Example "eedata" file
(PID.TID 0000.0001) ># Lines beginning "#" are comments
(PID.TID 0000.0001) ># nTx - No. threads per process in X
(PID.TID 0000.0001) ># nTy - No. threads per process in Y
(PID.TID 0000.0001) > &EEPARMS
(PID.TID 0000.0001) > useCubedSphereExchange=.TRUE.,
(PID.TID 0000.0001) > nTx=1,
(PID.TID 0000.0001) > nTy=1,
(PID.TID 0000.0001) > &
(PID.TID 0000.0001) 
(PID.TID 0000.0001) // =======================================================
(PID.TID 0000.0001) // Computational Grid Specification ( see files "SIZE.h" )
(PID.TID 0000.0001) //                                  ( and "eedata"       )
(PID.TID 0000.0001) // =======================================================
(PID.TID 0000.0001)      nPx =   96 ; /* No. processes in X */
(PID.TID 0000.0001)      nPy =    1 ; /* No. processes in Y */
(PID.TID 0000.0001)      nSx =    1 ; /* No. tiles in X per process */
(PID.TID 0000.0001)      nSy =    1 ; /* No. tiles in Y per process */
(PID.TID 0000.0001)      sNx =   30 ; /* Tile size in X */
(PID.TID 0000.0001)      sNy =   30 ; /* Tile size in Y */
(PID.TID 0000.0001)      OLx =    4 ; /* Tile overlap distance in X */
(PID.TID 0000.0001)      OLy =    4 ; /* Tile overlap distance in Y */
(PID.TID 0000.0001)      nTx =    1 ; /* No. threads in X per process */
(PID.TID 0000.0001)      nTy =    1 ; /* No. threads in Y per process */
(PID.TID 0000.0001)       Nr =   50 ; /* No. levels in the vertical   */
(PID.TID 0000.0001)       Nx = 2880 ; /* Total domain size in X ( = nPx*nSx*sNx ) */
(PID.TID 0000.0001)       Ny =   30 ; /* Total domain size in Y ( = nPy*nSy*sNy ) */
(PID.TID 0000.0001)   nTiles =    1 ; /* Total no. tiles per process ( = nSx*nSy ) */
(PID.TID 0000.0001)   nProcs =   96 ; /* Total no. processes ( = nPx*nPy ) */
(PID.TID 0000.0001) nThreads =    1 ; /* Total no. threads per process ( = nTx*nTy ) */
(PID.TID 0000.0001) usingMPI =    T ; /* Flag used to control whether MPI is in use */
(PID.TID 0000.0001)                   /*  note: To execute a program with MPI calls */
(PID.TID 0000.0001)                   /*  it must be launched appropriately e.g     */
(PID.TID 0000.0001)                   /*  "mpirun -np 64 ......"                    */
(PID.TID 0000.0001) useCoupler=    F ;/* Flag used to control communications with   */
(PID.TID 0000.0001)                   /*  other model components, through a coupler */
(PID.TID 0000.0001) debugMode =    F ; /* print debug msg. (sequence of S/R calls)  */
(PID.TID 0000.0001) printMapIncludesZeros=    F ; /* print zeros in Std.Output maps */
(PID.TID 0000.0001) maxLengthPrt1D=   65 /* maxLength of 1D array printed to StdOut */
(PID.TID 0000.0001) 
(PID.TID 0000.0001) ======= Starting MPI parallel Run =========
(PID.TID 0000.0001)  My Processor Name (len:  8 ) = borgo113
(PID.TID 0000.0001)  Located at (  0,  0) on processor grid (0: 95,0:  0)
(PID.TID 0000.0001)  Origin at  (     1,     1) on global grid (1:  2880,1:    30)
(PID.TID 0000.0001)  North neighbor = processor 0000
(PID.TID 0000.0001)  South neighbor = processor 0000
(PID.TID 0000.0001)   East neighbor = processor 0001
(PID.TID 0000.0001)   West neighbor = processor 0095
(PID.TID 0000.0001) // ======================================================
(PID.TID 0000.0001) // Mapping of tiles to threads
(PID.TID 0000.0001) // ======================================================
(PID.TID 0000.0001) // -o- Thread   1, tiles (   1:   1,   1:   1)
(PID.TID 0000.0001) 
(PID.TID 0000.0001) W2_READPARMS: opening data.exch2
(PID.TID 0000.0001)  OPEN_COPY_DATA_FILE: opening file data.exch2
(PID.TID 0000.0001) // =======================================================
(PID.TID 0000.0001) // Parameter file "data.exch2"
(PID.TID 0000.0001) // =======================================================
(PID.TID 0000.0001) ># EXCH2 Package: Wrapper-2 User Choice
(PID.TID 0000.0001) >#--------------------
(PID.TID 0000.0001) >#  preDefTopol   :: pre-defined Topology selector:
(PID.TID 0000.0001) >#                :: = 0 : topology defined from processing "data.exch2";
(PID.TID 0000.0001) >#                :: = 1 : simple, single facet topology;
(PID.TID 0000.0001) >#                :: = 2 : customized topology (w2_set_myown_facets)
(PID.TID 0000.0001) >#                :: = 3 : 6-facet Cube (3 face-dims: nRed, nGreen, nBlue).
(PID.TID 0000.0001) >#  dimsFacets    :: facet pair of dimensions (n1x,n1y, n2x,n2y ...)
(PID.TID 0000.0001) >#  facetEdgeLink :: Face-Edge connectivity map:
(PID.TID 0000.0001) >#    facetEdgeLink(i,j)=XX.1 : face(j)-edge(i) (i=1,2,3,4 <==> N,S,E,W)
(PID.TID 0000.0001) >#    is connected to Northern edge of face "XX" ; similarly,
(PID.TID 0000.0001) >#    = XX.2 : to Southern.E, XX.3 = Eastern.E, XX.4 = Western.E of face "XX"
(PID.TID 0000.0001) >#  blankList     :: List of "blank" tiles
(PID.TID 0000.0001) >#  W2_mapIO      :: global map IO selector (-1 = old type ; 0 = 1 long line in X
(PID.TID 0000.0001) >#                :: 1 = compact, mostly in Y dir)
(PID.TID 0000.0001) >#  W2_printMsg   :: option for information messages printing
(PID.TID 0000.0001) >#                :: <0 : write to log file ; =0 : minimum print ;
(PID.TID 0000.0001) >#                :: =1 : no duplicated print ; =2 : all processes do print
(PID.TID 0000.0001) >#--------------------
(PID.TID 0000.0001) > &W2_EXCH2_PARM01
(PID.TID 0000.0001) ># W2_printMsg= 0,
(PID.TID 0000.0001) >  W2_mapIO   = 1,
(PID.TID 0000.0001) >#
(PID.TID 0000.0001) >  preDefTopol=0,
(PID.TID 0000.0001) >#-- 5 facets llc_120 topology (drop facet 6 and its connection):
(PID.TID 0000.0001) >  dimsFacets(1:10) = 90, 270, 90, 270, 90, 90, 270, 90, 270, 90,
(PID.TID 0000.0001) >  facetEdgeLink(1:4,1)= 3.4, 0. , 2.4, 5.1,
(PID.TID 0000.0001) >  facetEdgeLink(1:4,2)= 3.2, 0. , 4.2, 1.3,
(PID.TID 0000.0001) >  facetEdgeLink(1:4,3)= 5.4, 2.1, 4.4, 1.1,
(PID.TID 0000.0001) >  facetEdgeLink(1:4,4)= 5.2, 2.3, 0. , 3.3,
(PID.TID 0000.0001) >  facetEdgeLink(1:4,5)= 1.4, 4.1, 0. , 3.1,
(PID.TID 0000.0001) >#-- full 6 facets llc_120 topology (equivalent to default preDefTopol=3):
(PID.TID 0000.0001) ># dimsFacets(1:12) = 120, 360, 120, 360, 120, 120, 360, 120, 360, 120, 120, 120,
(PID.TID 0000.0001) ># facetEdgeLink(1:4,1)= 3.4, 6.1, 2.4, 5.1,
(PID.TID 0000.0001) ># facetEdgeLink(1:4,2)= 3.2, 6.3, 4.2, 1.3,
(PID.TID 0000.0001) ># facetEdgeLink(1:4,3)= 5.4, 2.1, 4.4, 1.1,
(PID.TID 0000.0001) ># facetEdgeLink(1:4,4)= 5.2, 2.3, 6.2, 3.3,
(PID.TID 0000.0001) ># facetEdgeLink(1:4,5)= 1.4, 4.1, 6.4, 3.1,
(PID.TID 0000.0001) ># facetEdgeLink(1:4,6)= 1.2, 4.3, 2.2, 5.3,
(PID.TID 0000.0001) >#
(PID.TID 0000.0001) >#90x30   nprocs = 36
(PID.TID 0000.0001) ># blankList(1:3)=1,10,11,
(PID.TID 0000.0001) >#30x90
(PID.TID 0000.0001) >#
(PID.TID 0000.0001) >#45x30   nprocs = 72
(PID.TID 0000.0001) ># blankList(1:6)=1,2,19,20,21,22
(PID.TID 0000.0001) >#30x45   nprocs = 68
(PID.TID 0000.0001) ># blankList(1:10)=2,3,19,20,21,35,51,60,69,78
(PID.TID 0000.0001) >#45x45   nprocs = 48
(PID.TID 0000.0001) ># blankList(1:4)=2,13,14,23
(PID.TID 0000.0001) >#30x30   nprocs = 96
(PID.TID 0000.0001) >  blankList(1:21)=1,2,3,5,6,28,29,30,31,32,33,49,50,52,53,72,81,90,99,108,117
(PID.TID 0000.0001) >#30x30   nprocs = 112
(PID.TID 0000.0001) ># blankList(1:5)=2,3,28,29,30
(PID.TID 0000.0001) >#15x30   nprocs = 192
(PID.TID 0000.0001) ># blankList(1:42)=1,2,3,4,5,6,9,10,11,12,55,56,57,58,59,60,61,62,63,64,65,66,
(PID.TID 0000.0001) >#            97,98,99,100,103,104,105,106,143,144,
(PID.TID 0000.0001) >#            161,162,179,180,197,198,215,216,233,234
(PID.TID 0000.0001) >#15x15   nprocs = 360
(PID.TID 0000.0001) ># blankList(1:108)=1,2,3,4,5,6,7,8,9,10,11,12,14,15,16,17,18,21,22,23,24,
(PID.TID 0000.0001) >#  65,71,75,76,90,95,96,101,102,109,110,111,112,113,114,115,116,117,118,119,
(PID.TID 0000.0001) >#  120,121,122,123,124,125,126,127,128,129,130,131,132,
(PID.TID 0000.0001) >#  188,189,190,193,194,195,196,199,
(PID.TID 0000.0001) >#  200,201,202,203,205,206,207,208,209,211,212,213,214,215,216,242,247,253,
(PID.TID 0000.0001) >#  267,268,269,270,287,288,305,306,323,324,341,342,359,360,362,376,377,378,
(PID.TID 0000.0001) >#  380,381,382,395,396,400,412,413,414,430,
(PID.TID 0000.0001) >#note: it seems that 8 of the followig 9 tiles could be added to 15x15 blank
(PID.TID 0000.0001) >#  list to reach 352=22*16 cores : 431 432 440 441 448 449 450 467 468
(PID.TID 0000.0001) > &
(PID.TID 0000.0001) 
(PID.TID 0000.0001) W2_READPARMS: finished reading data.exch2
(PID.TID 0000.0001) W2_useE2ioLayOut=    T ;/* T: use Exch2 glob IO map; F: use model default */
(PID.TID 0000.0001) W2_mapIO        =   1 ; /* select option for Exch2 global-IO map */
(PID.TID 0000.0001) W2_printMsg     =  -1 ; /* select option for printing information */
(PID.TID 0000.0001) ===== Start setting W2 TOPOLOGY:
(PID.TID 0000.0001)  write to log-file: w2_tile_topology.0000.log
(PID.TID 0000.0001) =====       setting W2 TOPOLOGY: Done
(PID.TID 0000.0001) 
(PID.TID 0000.0001)  INI_PARMS: opening model parameter file "data"
(PID.TID 0000.0001)  OPEN_COPY_DATA_FILE: opening file data
(PID.TID 0000.0001) // =======================================================
(PID.TID 0000.0001) // Parameter file "data"
(PID.TID 0000.0001) // =======================================================
(PID.TID 0000.0001) ># ====================
(PID.TID 0000.0001) ># | Model parameters |
(PID.TID 0000.0001) ># ====================
(PID.TID 0000.0001) >#
(PID.TID 0000.0001) ># Continuous equation parameters
(PID.TID 0000.0001) > &PARM01
(PID.TID 0000.0001) > tRef               = 3*23.,3*22.,21.,2*20.,19.,2*18.,17.,2*16.,15.,14.,13.,
(PID.TID 0000.0001) >                      12.,11.,2*9.,8.,7.,2*6.,2*5.,3*4.,3*3.,4*2.,12*1.,
(PID.TID 0000.0001) > sRef               = 50*34.5,
(PID.TID 0000.0001) > no_slip_sides  = .TRUE.,
(PID.TID 0000.0001) > no_slip_bottom = .TRUE.,
(PID.TID 0000.0001) >#
(PID.TID 0000.0001) > viscAr=0.5E-4,
(PID.TID 0000.0001) >#
(PID.TID 0000.0001) > viscAh=1.E0,
(PID.TID 0000.0001) > viscAhGrid=2.E-2,
(PID.TID 0000.0001) ># viscAh=2.0e4,
(PID.TID 0000.0001) >#
(PID.TID 0000.0001) > diffKhT=1.E1,
(PID.TID 0000.0001) > diffKrT=1.E-5,
(PID.TID 0000.0001) > diffKhS=1.E1,
(PID.TID 0000.0001) > diffKrS=1.E-5,
(PID.TID 0000.0001) >#
(PID.TID 0000.0001) >### diffKrBL79surf=0.1E-4,
(PID.TID 0000.0001) >### diffKrBL79deep=1.0E-4,
(PID.TID 0000.0001) > bottomDragQuadratic = 0.001,
(PID.TID 0000.0001) >#when using ggl90
(PID.TID 0000.0001) > ivdc_kappa=10.,
(PID.TID 0000.0001) > implicitDiffusion=.TRUE.,
(PID.TID 0000.0001) > implicitViscosity=.TRUE.,
(PID.TID 0000.0001) > useRealFreshWaterFlux=.TRUE.,
(PID.TID 0000.0001) ># balanceThetaClimRelax=.TRUE.,
(PID.TID 0000.0001) > balanceSaltClimRelax=.TRUE.,
(PID.TID 0000.0001) ># balanceEmPmR=.TRUE.,
(PID.TID 0000.0001) ># balanceQnet=.TRUE.,
(PID.TID 0000.0001) > allowFreezing=.FALSE.,
(PID.TID 0000.0001) >### hFacInf=0.2,
(PID.TID 0000.0001) >### hFacSup=2.0,
(PID.TID 0000.0001) > hFacMin=.2,
(PID.TID 0000.0001) > hFacMinDr=5.,
(PID.TID 0000.0001) > select_rStar=2,
(PID.TID 0000.0001) > nonlinFreeSurf=4,
(PID.TID 0000.0001) > gravity=9.81,
(PID.TID 0000.0001) > rhonil=1029.,
(PID.TID 0000.0001) > rhoConst=1029.,
(PID.TID 0000.0001) > rhoConstFresh=1000.,
(PID.TID 0000.0001) > convertFW2Salt=-1.,
(PID.TID 0000.0001) > eosType='JMD95Z',
(PID.TID 0000.0001) > implicitFreeSurface=.TRUE.,
(PID.TID 0000.0001) > exactConserv=.TRUE.,
(PID.TID 0000.0001) > useSingleCpuIO=.TRUE.,
(PID.TID 0000.0001) > tempAdvScheme=30,
(PID.TID 0000.0001) > saltAdvScheme=30,
(PID.TID 0000.0001) > tempVertAdvScheme=3,
(PID.TID 0000.0001) > saltVertAdvScheme=3,
(PID.TID 0000.0001) > tempImplVertAdv=.TRUE.,
(PID.TID 0000.0001) > saltImplVertAdv=.TRUE.,
(PID.TID 0000.0001) > staggerTimeStep=.TRUE.,
(PID.TID 0000.0001) > vectorInvariantMomentum=.TRUE.,
(PID.TID 0000.0001) >#when using the cd scheme:
(PID.TID 0000.0001) ># useCDscheme=.TRUE.,
(PID.TID 0000.0001) > useJamartWetPoints=.TRUE.,
(PID.TID 0000.0001) > readBinaryPrec=32,
(PID.TID 0000.0001) > writeBinaryPrec=32,
(PID.TID 0000.0001) > debugLevel=1,
(PID.TID 0000.0001) > &
(PID.TID 0000.0001) >
(PID.TID 0000.0001) ># Elliptic solver parameters
(PID.TID 0000.0001) > &PARM02
(PID.TID 0000.0001) > cg2dMaxIters=300,
(PID.TID 0000.0001) > cg2dTargetResWunit=1.E-12,
(PID.TID 0000.0001) > &
(PID.TID 0000.0001) >
(PID.TID 0000.0001) ># Time stepping parameters
(PID.TID 0000.0001) > &PARM03
(PID.TID 0000.0001) > nIter0=1,
(PID.TID 0000.0001) >#2 lev2 for testing:
(PID.TID 0000.0001) >#nTimeSteps=8,
(PID.TID 0000.0001) >#20y:
(PID.TID 0000.0001) > nTimeSteps=175295,
(PID.TID 0000.0001) >#60 years
(PID.TID 0000.0001) >#nTimeSteps=525985,
(PID.TID 0000.0001) >#
(PID.TID 0000.0001) > forcing_In_AB=.FALSE.,
(PID.TID 0000.0001) > momDissip_In_AB=.FALSE.,
(PID.TID 0000.0001) >#when using the cd scheme:
(PID.TID 0000.0001) ># epsAB_CD = 0.25,
(PID.TID 0000.0001) ># tauCD=172800.0,
(PID.TID 0000.0001) > deltaTmom   =3600.,
(PID.TID 0000.0001) > deltaTtracer=3600.,
(PID.TID 0000.0001) > deltaTfreesurf=3600.,
(PID.TID 0000.0001) > deltaTClock =3600.,
(PID.TID 0000.0001) >#when using ab2:
(PID.TID 0000.0001) > abEps = 0.1,
(PID.TID 0000.0001) >#when using ab3:
(PID.TID 0000.0001) ># doAB_onGtGs=.FALSE.,
(PID.TID 0000.0001) ># alph_AB=0.5,
(PID.TID 0000.0001) ># beta_AB=0.281105,
(PID.TID 0000.0001) >#
(PID.TID 0000.0001) > pChkptFreq  =31536000.0,
(PID.TID 0000.0001) > chkptFreq   =31536000.0,
(PID.TID 0000.0001) ># taveFreq    =31536000.0,
(PID.TID 0000.0001) ># dumpFreq    =31536000.0,
(PID.TID 0000.0001) > monitorFreq = 7200.0,
(PID.TID 0000.0001) ># monitorFreq = 6307200.0,
(PID.TID 0000.0001) > dumpInitAndLast = .TRUE.,
(PID.TID 0000.0001) > adjMonitorFreq = 864000.0,
(PID.TID 0000.0001) > pickupStrictlyMatch=.FALSE.,
(PID.TID 0000.0001) > &
(PID.TID 0000.0001) >
(PID.TID 0000.0001) ># Gridding parameters
(PID.TID 0000.0001) > &PARM04
(PID.TID 0000.0001) > usingCurvilinearGrid=.TRUE.,
(PID.TID 0000.0001) > delR =
(PID.TID 0000.0001) >     10.00, 10.00, 10.00, 10.00, 10.00, 10.00, 10.00, 10.01,
(PID.TID 0000.0001) >     10.03, 10.11, 10.32, 10.80, 11.76, 13.42, 16.04, 19.82, 24.85,
(PID.TID 0000.0001) >     31.10, 38.42, 46.50, 55.00, 63.50, 71.58, 78.90, 85.15, 90.18,
(PID.TID 0000.0001) >     93.96, 96.58, 98.25, 99.25,100.01,101.33,104.56,111.33,122.83,
(PID.TID 0000.0001) >     139.09,158.94,180.83,203.55,226.50,249.50,272.50,295.50,318.50,
(PID.TID 0000.0001) >     341.50,364.50,387.50,410.50,433.50,456.50,
(PID.TID 0000.0001) > &
(PID.TID 0000.0001) >
(PID.TID 0000.0001) ># Input datasets
(PID.TID 0000.0001) > &PARM05
(PID.TID 0000.0001) >#adTapeDir='tapes',
(PID.TID 0000.0001) > bathyFile      ='bathy.bin',
(PID.TID 0000.0001) > hydrogThetaFile='T_OWPv1_M_eccollc_90x50.bin',
(PID.TID 0000.0001) > hydrogSaltFile ='S_OWPv1_M_eccollc_90x50.bin',
(PID.TID 0000.0001) > viscA4Dfile    ='viscA4Dfld.bin',
(PID.TID 0000.0001) > viscA4Zfile    ='viscA4Zfld.bin',
(PID.TID 0000.0001) > geothermalFile='geothermalFlux.bin',
(PID.TID 0000.0001) >#
(PID.TID 0000.0001) > &
(PID.TID 0000.0001) 
(PID.TID 0000.0001)  INI_PARMS ; starts to read PARM01
(PID.TID 0000.0001)  INI_PARMS ; read PARM01 : OK
(PID.TID 0000.0001)  INI_PARMS ; starts to read PARM02
(PID.TID 0000.0001)  INI_PARMS ; read PARM02 : OK
(PID.TID 0000.0001)  INI_PARMS ; starts to read PARM03
(PID.TID 0000.0001)  INI_PARMS ; read PARM03 : OK
(PID.TID 0000.0001)  INI_PARMS ; starts to read PARM04
(PID.TID 0000.0001)  INI_PARMS ; read PARM04 : OK
(PID.TID 0000.0001)  INI_PARMS ; starts to read PARM05
(PID.TID 0000.0001)  INI_PARMS ; read PARM05 : OK
(PID.TID 0000.0001)  INI_PARMS: finished reading file "data"
(PID.TID 0000.0001)  PACKAGES_BOOT: opening data.pkg
(PID.TID 0000.0001)  OPEN_COPY_DATA_FILE: opening file data.pkg
(PID.TID 0000.0001) // =======================================================
(PID.TID 0000.0001) // Parameter file "data.pkg"
(PID.TID 0000.0001) // =======================================================
(PID.TID 0000.0001) ># Packages
(PID.TID 0000.0001) > &PACKAGES
(PID.TID 0000.0001) > useGMRedi          = .TRUE.,
(PID.TID 0000.0001) > useGGL90           = .TRUE.,
(PID.TID 0000.0001) > useSALT_PLUME      = .TRUE.,
(PID.TID 0000.0001) > useDiagnostics     = .TRUE.,
(PID.TID 0000.0001) > &
(PID.TID 0000.0001) 
(PID.TID 0000.0001)  PACKAGES_BOOT: finished reading data.pkg
(PID.TID 0000.0001)  PACKAGES_BOOT: On/Off package Summary
 --------  pkgs with a standard "usePKG" On/Off switch in "data.pkg":  --------
 pkg/ggl90                compiled   and   used ( useGGL90                 = T )
 pkg/gmredi               compiled   and   used ( useGMRedi                = T )
 pkg/salt_plume           compiled   and   used ( useSALT_PLUME            = T )
 pkg/diagnostics          compiled   and   used ( useDiagnostics           = T )
 -------- pkgs without standard "usePKG" On/Off switch in "data.pkg":  --------
 pkg/generic_advdiff      compiled   and   used ( useGAD                   = T )
 pkg/mom_common           compiled   and   used ( momStepping              = T )
 pkg/mom_vecinv           compiled   and   used ( +vectorInvariantMomentum = T )
 pkg/monitor              compiled   and   used ( monitorFreq > 0.         = T )
 pkg/debug                compiled but not used ( debugMode                = F )
 pkg/exch2                compiled   and   used
 pkg/rw                   compiled   and   used
 pkg/mdsio                compiled   and   used
(PID.TID 0000.0001)  PACKAGES_BOOT: End of package Summary
(PID.TID 0000.0001) 
(PID.TID 0000.0001)  GGL90_READPARMS: opening data.ggl90
(PID.TID 0000.0001)  OPEN_COPY_DATA_FILE: opening file data.ggl90
(PID.TID 0000.0001) // =======================================================
(PID.TID 0000.0001) // Parameter file "data.ggl90"
(PID.TID 0000.0001) // =======================================================
(PID.TID 0000.0001) ># =====================================================================
(PID.TID 0000.0001) ># | Parameters for Gaspar et al. (1990)'s TKE vertical mixing scheme  |
(PID.TID 0000.0001) ># =====================================================================
(PID.TID 0000.0001) > &GGL90_PARM01
(PID.TID 0000.0001) ># GGL90taveFreq = 345600000.,
(PID.TID 0000.0001) ># GGL90dumpFreq = 86400.,
(PID.TID 0000.0001) ># GGL90writeState=.FALSE.,
(PID.TID 0000.0001) ># GGL90diffTKEh=3.e3,
(PID.TID 0000.0001) > GGL90alpha=30.,
(PID.TID 0000.0001) ># GGL90TKEFile = 'TKE_init.bin',
(PID.TID 0000.0001) > GGL90TKEmin  = 1.e-7,
(PID.TID 0000.0001) > GGL90TKEbottom = 1.e-6,
(PID.TID 0000.0001) > mxlMaxFlag =2,
(PID.TID 0000.0001) > mxlSurfFlag=.TRUE.,
(PID.TID 0000.0001) > &
(PID.TID 0000.0001) 
(PID.TID 0000.0001)  GGL90_READPARMS: finished reading data.ggl90
(PID.TID 0000.0001) // =======================================================
(PID.TID 0000.0001) // GGL90 configuration
(PID.TID 0000.0001) // =======================================================
(PID.TID 0000.0001) GGL90dumpFreq =   /* GGL90 state write out interval ( s ). */
(PID.TID 0000.0001)                 0.000000000000000E+00
(PID.TID 0000.0001)     ;
(PID.TID 0000.0001) GGL90taveFreq =   /* GGL90 averaging interval ( s ). */
(PID.TID 0000.0001)                 0.000000000000000E+00
(PID.TID 0000.0001)     ;
(PID.TID 0000.0001) GGL90mixingMAPS =   /* GGL90 IO flag. */
(PID.TID 0000.0001)                   F
(PID.TID 0000.0001)     ;
(PID.TID 0000.0001) GGL90writeState =   /* GGL90 IO flag. */
(PID.TID 0000.0001)                   F
(PID.TID 0000.0001)     ;
(PID.TID 0000.0001) GGL90ck =   /* GGL90 viscosity parameter. */
(PID.TID 0000.0001)                 1.000000000000000E-01
(PID.TID 0000.0001)     ;
(PID.TID 0000.0001) GGL90ceps =   /* GGL90 dissipation parameter. */
(PID.TID 0000.0001)                 7.000000000000000E-01
(PID.TID 0000.0001)     ;
(PID.TID 0000.0001) GGL90alpha =   /* GGL90 TKE diffusivity parameter. */
(PID.TID 0000.0001)                 3.000000000000000E+01
(PID.TID 0000.0001)     ;
(PID.TID 0000.0001) GGL90m2 =   /* GGL90 wind stress to vertical stress ratio. */
(PID.TID 0000.0001)                 3.750000000000000E+00
(PID.TID 0000.0001)     ;
(PID.TID 0000.0001) GGL90TKEmin =   /* GGL90 minimum kinetic energy ( m^2/s^2 ). */
(PID.TID 0000.0001)                 1.000000000000000E-07
(PID.TID 0000.0001)     ;
(PID.TID 0000.0001) GGL90TKEsurfMin =   /* GGL90 minimum surface kinetic energy ( m^2/s^2 ). */
(PID.TID 0000.0001)                 1.000000000000000E-04
(PID.TID 0000.0001)     ;
(PID.TID 0000.0001) GGL90TKEbottom =   /* GGL90 bottom kinetic energy ( m^2/s^2 ). */
(PID.TID 0000.0001)                 1.000000000000000E-06
(PID.TID 0000.0001)     ;
(PID.TID 0000.0001) GGL90viscMax =   /* GGL90 upper limit for viscosity ( m^2/s ). */
(PID.TID 0000.0001)                 1.000000000000000E+02
(PID.TID 0000.0001)     ;
(PID.TID 0000.0001) GGL90diffMax =   /* GGL90 upper limit for diffusivity ( m^2/s ). */
(PID.TID 0000.0001)                 1.000000000000000E+02
(PID.TID 0000.0001)     ;
(PID.TID 0000.0001) GGL90diffTKEh =   /* GGL90 horizontal diffusivity for TKE ( m^2/s ). */
(PID.TID 0000.0001)                 0.000000000000000E+00
(PID.TID 0000.0001)     ;
(PID.TID 0000.0001) GGL90mixingLengthMin =   /* GGL90 minimum mixing length ( m ). */
(PID.TID 0000.0001)                 1.000000000000000E-08
(PID.TID 0000.0001)     ;
(PID.TID 0000.0001) mxlMaxFlag =   /* Flag for limiting mixing-length method */
(PID.TID 0000.0001)                       2
(PID.TID 0000.0001)     ;
(PID.TID 0000.0001) mxlSurfFlag =   /* GGL90 flag for near surface mixing. */
(PID.TID 0000.0001)                   T
(PID.TID 0000.0001)     ;
(PID.TID 0000.0001) calcMeanVertShear = /* calc Mean of Vert.Shear (vs shear of Mean flow) */
(PID.TID 0000.0001)                   F
(PID.TID 0000.0001)     ;
(PID.TID 0000.0001) GGL90: GGL90TKEFile =
(PID.TID 0000.0001) GGL90writeState =   /* GGL90 Boundary condition flag. */
(PID.TID 0000.0001)                   T
(PID.TID 0000.0001)     ;
(PID.TID 0000.0001) // =======================================================
(PID.TID 0000.0001) // End of GGL90 config. summary
(PID.TID 0000.0001) // =======================================================
(PID.TID 0000.0001) 
(PID.TID 0000.0001)  GM_READPARMS: opening data.gmredi
(PID.TID 0000.0001)  OPEN_COPY_DATA_FILE: opening file data.gmredi
(PID.TID 0000.0001) // =======================================================
(PID.TID 0000.0001) // Parameter file "data.gmredi"
(PID.TID 0000.0001) // =======================================================
(PID.TID 0000.0001) ># GM+Redi package parameters:
(PID.TID 0000.0001) >#     GM_Small_Number  :: epsilon used in computing the slope
(PID.TID 0000.0001) >#     GM_slopeSqCutoff :: slope^2 cut-off value
(PID.TID 0000.0001) >
(PID.TID 0000.0001) >#-from MOM :
(PID.TID 0000.0001) ># GM_background_K: 	G & Mc.W  diffusion coefficient
(PID.TID 0000.0001) ># GM_maxSlope    :	max slope of isopycnals
(PID.TID 0000.0001) ># GM_Scrit       :	transition for scaling diffusion coefficient
(PID.TID 0000.0001) ># GM_Sd          :	half width scaling for diffusion coefficient
(PID.TID 0000.0001) ># GM_taper_scheme:	slope clipping or one of the tapering schemes
(PID.TID 0000.0001) ># GM_Kmin_horiz  :	horizontal diffusion minimum value
(PID.TID 0000.0001) >
(PID.TID 0000.0001) >#-Option parameters (needs to "define" options in GMREDI_OPTIONS.h")
(PID.TID 0000.0001) ># GM_isopycK     :	isopycnal diffusion coefficient (default=GM_background_K)
(PID.TID 0000.0001) ># GM_AdvForm     :	turn on GM Advective form       (default=Skew flux form)
(PID.TID 0000.0001) >
(PID.TID 0000.0001) > &GM_PARM01
(PID.TID 0000.0001) >  GM_Small_Number  = 1.D-20,
(PID.TID 0000.0001) >  GM_slopeSqCutoff = 1.D+08,
(PID.TID 0000.0001) >  GM_AdvForm         = .TRUE.,
(PID.TID 0000.0001) >  GM_isopycK         = 1.D+3,
(PID.TID 0000.0001) >  GM_background_K    = 1.D+3,
(PID.TID 0000.0001) >  GM_maxSlope        = 4.D-3,
(PID.TID 0000.0001) >  GM_taper_scheme    = 'stableGmAdjTap',
(PID.TID 0000.0001) >  GM_Kmin_horiz      = 100.,
(PID.TID 0000.0001) >  GM_Scrit           = 4.D-3,
(PID.TID 0000.0001) >  GM_Sd              = 1.D-3,
(PID.TID 0000.0001) >#
(PID.TID 0000.0001) >###  GM_Visbeck_alpha   = 1.5D-2,
(PID.TID 0000.0001) >###  GM_Visbeck_alpha   = 0.D0,
(PID.TID 0000.0001) >###  GM_Visbeck_length  = 2.D+5,
(PID.TID 0000.0001) >###  GM_Visbeck_depth   = 1.D+3,
(PID.TID 0000.0001) >###  GM_Visbeck_maxval_K= 2.5D+3,
(PID.TID 0000.0001) > &
(PID.TID 0000.0001) >
(PID.TID 0000.0001) >
(PID.TID 0000.0001) 
(PID.TID 0000.0001)  GM_READPARMS: finished reading data.gmredi
(PID.TID 0000.0001) SALT_PLUME_READPARMS: opening data.salt_plume
(PID.TID 0000.0001)  OPEN_COPY_DATA_FILE: opening file data.salt_plume
(PID.TID 0000.0001) // =======================================================
(PID.TID 0000.0001) // Parameter file "data.salt_plume"
(PID.TID 0000.0001) // =======================================================
(PID.TID 0000.0001) > &SALT_PLUME_PARM01
(PID.TID 0000.0001) > SPsalFRAC= 0.5D0,
(PID.TID 0000.0001) > &
(PID.TID 0000.0001) 
(PID.TID 0000.0001) SALT_PLUME_READPARMS: finished reading data.salt_plume
(PID.TID 0000.0001)  DIAGNOSTICS_READPARMS: opening data.diagnostics
(PID.TID 0000.0001)  OPEN_COPY_DATA_FILE: opening file data.diagnostics
(PID.TID 0000.0001) // =======================================================
(PID.TID 0000.0001) // Parameter file "data.diagnostics"
(PID.TID 0000.0001) // =======================================================
(PID.TID 0000.0001) ># Diagnostic Package Choices
(PID.TID 0000.0001) >#-----------------
(PID.TID 0000.0001) ># for each output-stream:
(PID.TID 0000.0001) >#  filename(n) : prefix of the output file name (only 8.c long) for outp.stream n
(PID.TID 0000.0001) >#  frequency(n):< 0 : write snap-shot output every multiple of |frequency| (iter)
(PID.TID 0000.0001) >#               > 0 : write time-average output every multiple of frequency (iter)
(PID.TID 0000.0001) >#  levels(:,n) : list of levels to write to file (Notes: declared as REAL)
(PID.TID 0000.0001) >#                 when this entry is missing, select all common levels of this list
(PID.TID 0000.0001) >#  fields(:,n) : list of diagnostics fields (8.c) (see "available_diagnostics" file
(PID.TID 0000.0001) >#                 for the list of all available diag. in this particular config)
(PID.TID 0000.0001) >#--------------------------------------------------------------------
(PID.TID 0000.0001) >#
(PID.TID 0000.0001) > &diagnostics_list
(PID.TID 0000.0001) >#
(PID.TID 0000.0001) >   dumpatlast = .TRUE.,
(PID.TID 0000.0001) >   diagMdsDir = 'diags',
(PID.TID 0000.0001) >#---
(PID.TID 0000.0001) >  frequency(1) = 2635200.0,
(PID.TID 0000.0001) >   fields(1:9,1) = 'ETAN    ',
(PID.TID 0000.0001) >#stuff that is not quite state variables (and may not be quite
(PID.TID 0000.0001) >#synchroneous) but are added here to reduce number of files
(PID.TID 0000.0001) >                 'DETADT2 ','PHIBOT  ',
(PID.TID 0000.0001) >                 'MXLDEPTH','oceSPDep',
(PID.TID 0000.0001) >                 'oceQnet ','oceFWflx',
(PID.TID 0000.0001) >                 'oceTAUX ','oceTAUY ',
(PID.TID 0000.0001) >   filename(1) = 'state_2d_set1',
(PID.TID 0000.0001) >#---
(PID.TID 0000.0001) >  frequency(2) = 2635200.0,
(PID.TID 0000.0001) >   fields(1:3,2) = 'THETA   ','SALT    ',
(PID.TID 0000.0001) >#stuff that is not quite state variables (and may not be quite
(PID.TID 0000.0001) >#synchroneous) but are added here to reduce file number
(PID.TID 0000.0001) >                 'DRHODR  ',
(PID.TID 0000.0001) >#                'KPPviscA','KPPdiffT','KPPdiffTS',
(PID.TID 0000.0001) >#                'GGL90TKE','GGL90Lmx','GGL90Prl',
(PID.TID 0000.0001) >#                'GGL90ArU','GGL90ArV','GGL90Kr ',
(PID.TID 0000.0001) >   filename(2) = 'state_3d_set1',
(PID.TID 0000.0001) >#---
(PID.TID 0000.0001) >  frequency(3) = 2635200.0,
(PID.TID 0000.0001) >   fields(1:5,3) = 'UVELMASS','VVELMASS','WVELMASS',
(PID.TID 0000.0001) >                 'GM_PsiX ','GM_PsiY ',
(PID.TID 0000.0001) >#uvel is approximately uvelmass divided by initial hfac, so we dont output the former
(PID.TID 0000.0001) >#                'UVEL    ','VVEL    ','WVEL     ',
(PID.TID 0000.0001) >#full 3D temperature fluxes : 'DFxE_TH ','DFyE_TH ','DFrE_TH ','DFrI_TH ','ADVx_TH ','ADVy_TH ','ADVr_TH ',
(PID.TID 0000.0001) >#but for present computations I only need the vertically integrated horizontal components (see trsp_3d_set2)
(PID.TID 0000.0001) >   filename(3) = 'trsp_3d_set1',
(PID.TID 0000.0001) >#---
(PID.TID 0000.0001) >  frequency(4) = 2635200.0,
(PID.TID 0000.0001) >   fields(1:8,4) = 'DFxE_TH ','DFyE_TH ','ADVx_TH ','ADVy_TH ',
(PID.TID 0000.0001) >                 'DFxE_SLT','DFyE_SLT','ADVx_SLT','ADVy_SLT',
(PID.TID 0000.0001) >   filename(4) = 'trsp_3d_set2',
(PID.TID 0000.0001) >#vertically integrate fields we only use to compute vertically integr.
(PID.TID 0000.0001) >#meridional transports (also omit vertical transports, both to save space)
(PID.TID 0000.0001) >#---
(PID.TID 0000.0001) >  frequency(5) = -2635200.0,
(PID.TID 0000.0001) >   fields(1:2,5) = 'ETAN    ',
(PID.TID 0000.0001) >                   'PHIBOT  ',
(PID.TID 0000.0001) >#  filename(5) = 'budg2d_snap_set1',
(PID.TID 0000.0001) >   timePhase(5)= 0.,
(PID.TID 0000.0001) >   fileFlags(5) = 'D       ',
(PID.TID 0000.0001) >#---
(PID.TID 0000.0001) >  frequency(6) = -2635200.0,
(PID.TID 0000.0001) >   fields(1:2,6) = 'THETA   ','SALT    ',
(PID.TID 0000.0001) >#  filename(6) = 'budg2d_snap_set2',
(PID.TID 0000.0001) >   timePhase(6)= 0.,
(PID.TID 0000.0001) >   fileFlags(6) = 'DI      ',
(PID.TID 0000.0001) >#---
(PID.TID 0000.0001) >  frequency(7) = 2635200.0,
(PID.TID 0000.0001) >   fields(1:4,7) = 'oceFWflx','TFLUX   ',
(PID.TID 0000.0001) >                   'SFLUX   ','oceQsw  ',
(PID.TID 0000.0001) >#  filename(7) = 'budg2d_zflux_set1',
(PID.TID 0000.0001) >   fileFlags(7) = 'D       ',
(PID.TID 0000.0001) >#---
(PID.TID 0000.0001) >  frequency(8) = 2635200.0,
(PID.TID 0000.0001) >   fields(1:13,8) ='UVELMASS','VVELMASS',
(PID.TID 0000.0001) >                 'ADVx_TH ','ADVy_TH ','DFxE_TH ','DFyE_TH ',
(PID.TID 0000.0001) >                 'ADVx_SLT','ADVy_SLT','DFxE_SLT','DFyE_SLT',
(PID.TID 0000.0001) >#the following are not transports but tendencies
(PID.TID 0000.0001) >                 'oceSPtnd','AB_gT   ','AB_gS   ',
(PID.TID 0000.0001) >#  filename(8) = 'budg2d_hflux_set2',
(PID.TID 0000.0001) >   fileFlags(8) = 'DI      ',
(PID.TID 0000.0001) >#---
(PID.TID 0000.0001) ># this one is important because it activates the vertical advection diags
(PID.TID 0000.0001) >  frequency(9) = 2635200.0,
(PID.TID 0000.0001) >   fields(1:7,9) = 'ADVr_TH ','DFrE_TH ','DFrI_TH ',
(PID.TID 0000.0001) >                  'ADVr_SLT','DFrE_SLT','DFrI_SLT',
(PID.TID 0000.0001) >                  'WVELMASS',
(PID.TID 0000.0001) >#  filename(9) = 'budg2d_zflux_set3_11',
(PID.TID 0000.0001) >   levels(1, 9)= 11.,
(PID.TID 0000.0001) >   fileFlags(9) = 'D       ',
(PID.TID 0000.0001) >#---
(PID.TID 0000.0001) >  frequency(10) = 2635200.0,
(PID.TID 0000.0001) >   fields(1:6,10) ='SRELAX  ','TRELAX  ','WTHMASS ','WSLTMASS',
(PID.TID 0000.0001) >                 'oceSflux','oceQnet ',
(PID.TID 0000.0001) >#  filename(10) = 'budg2d_zflux_set2',
(PID.TID 0000.0001) >   fileFlags(10) = 'D       ',
(PID.TID 0000.0001) >#---
(PID.TID 0000.0001) >  frequency(11) = 2635200.0,
(PID.TID 0000.0001) >   fields(1:13,11) ='UVELMASS','VVELMASS',
(PID.TID 0000.0001) >                 'ADVx_TH ','ADVy_TH ','DFxE_TH ','DFyE_TH ',
(PID.TID 0000.0001) >                 'ADVx_SLT','ADVy_SLT','DFxE_SLT','DFyE_SLT',
(PID.TID 0000.0001) >                 'oceSPtnd','AB_gT   ','AB_gS   ',
(PID.TID 0000.0001) >#  filename(11) = 'budg2d_hflux_set3_11',
(PID.TID 0000.0001) >   levels(1:40,11) = 11.,12.,13.,14.,15.,16.,17.,18.,19.,20.,
(PID.TID 0000.0001) >                     21.,22.,23.,24.,25.,26.,27.,28.,29.,30.,
(PID.TID 0000.0001) >                     31.,32.,33.,34.,35.,36.,37.,38.,39.,40.,
(PID.TID 0000.0001) >                     41.,42.,43.,44.,45.,46.,47.,48.,49.,50.,
(PID.TID 0000.0001) >   fileFlags(11) = 'DI      ',
(PID.TID 0000.0001) >#---
(PID.TID 0000.0001) >  frequency(12) = -2635200.0,
(PID.TID 0000.0001) >   fields(1:2,12) = 'THETA   ','SALT    ',
(PID.TID 0000.0001) >#  filename(12) = 'budg2d_snap_set3_11',
(PID.TID 0000.0001) >   timePhase(12)= 0.,
(PID.TID 0000.0001) >   levels(1:40,12) = 11.,12.,13.,14.,15.,16.,17.,18.,19.,20.,
(PID.TID 0000.0001) >                     21.,22.,23.,24.,25.,26.,27.,28.,29.,30.,
(PID.TID 0000.0001) >                     31.,32.,33.,34.,35.,36.,37.,38.,39.,40.,
(PID.TID 0000.0001) >                     41.,42.,43.,44.,45.,46.,47.,48.,49.,50.,
(PID.TID 0000.0001) >   fileFlags(12) = 'DI      ',
(PID.TID 0000.0001) >#---
(PID.TID 0000.0001) >  frequency(13) = 2635200.0,
(PID.TID 0000.0001) >   fields(1:8,13) = 'DFxE_TH ','DFyE_TH ','ADVx_TH ','ADVy_TH ',
(PID.TID 0000.0001) >                 'DFxE_SLT','DFyE_SLT','ADVx_SLT','ADVy_SLT',
(PID.TID 0000.0001) >#  filename(13) = 'trsp_2d_set1',
(PID.TID 0000.0001) >#vertically integrate fields we only use to compute vertically integr.
(PID.TID 0000.0001) >#meridional transports (also omit vertical transports, both to save space)
(PID.TID 0000.0001) >   fileFlags(13) = ' I      ',
(PID.TID 0000.0001) >#---
(PID.TID 0000.0001) >  frequency(14) = 2635200.0,
(PID.TID 0000.0001) >   fields(1:3,14) = 'RHOAnoma','PHIHYD  ','oceSPtnd',
(PID.TID 0000.0001) >#  filename(14) = 'state_3d_set2',
(PID.TID 0000.0001) >#---
(PID.TID 0000.0001) >  frequency(15) = 2635200.0,
(PID.TID 0000.0001) >   fields(1:7,15) = 'ADVr_TH ','DFrE_TH ','DFrI_TH ',
(PID.TID 0000.0001) >        'ADVr_SLT','DFrE_SLT','DFrI_SLT','WVELMASS',
(PID.TID 0000.0001) >#  filename(15) = 'trsp_3d_set3',
(PID.TID 0000.0001) >#---
(PID.TID 0000.0001) >  frequency(16) = 2635200.0,
(PID.TID 0000.0001) >   fields(1:4,16) = 'TFLUX   ','SFLUX   ',
(PID.TID 0000.0001) >        'oceQsw  ','oceSPflx',
(PID.TID 0000.0001) >#  filename(16) = 'state_2d_set2',
(PID.TID 0000.0001) >#---
(PID.TID 0000.0001) > &
(PID.TID 0000.0001) >#
(PID.TID 0000.0001) >#
(PID.TID 0000.0001) ># Parameter for Diagnostics of per level statistics:
(PID.TID 0000.0001) >#-----------------
(PID.TID 0000.0001) ># for each output-stream:
(PID.TID 0000.0001) >#  stat_fname(n) : prefix of the output file name (only 8.c long) for outp.stream n
(PID.TID 0000.0001) >#  stat_freq(n):< 0 : write snap-shot output every |stat_freq| seconds
(PID.TID 0000.0001) >#               > 0 : write time-average output every stat_freq seconds
(PID.TID 0000.0001) >#  stat_phase(n)    : write at time = stat_phase + multiple of |stat_freq|
(PID.TID 0000.0001) >#  stat_region(:,n) : list of "regions" (default: 1 region only=global)
(PID.TID 0000.0001) >#  stat_fields(:,n) : list of diagnostics fields (8.c) (see "available_diagnostics.log"
(PID.TID 0000.0001) >#                 file for the list of all available diag. in this particular config)
(PID.TID 0000.0001) >#-----------------
(PID.TID 0000.0001) > &DIAG_STATIS_PARMS
(PID.TID 0000.0001) ># diagSt_regMaskFile='basin_masks_eccollc_90x50.bin',
(PID.TID 0000.0001) ># nSetRegMskFile=1,
(PID.TID 0000.0001) ># set_regMask(1)= 1,  1,  1,  1,  1,  1,  1,  1,  1,
(PID.TID 0000.0001) >#                 1,  1,  1,  1,  1,  1,  1,  1
(PID.TID 0000.0001) ># val_regMask(1)= 1., 2., 3., 4., 5., 6., 7., 8., 9.,
(PID.TID 0000.0001) >#                10.,11.,12.,13.,14.,15.,16.,17.
(PID.TID 0000.0001) >##---
(PID.TID 0000.0001) ># stat_fields(1,1)= 'ETAN    ','ETANSQ  ','DETADT2 ',
(PID.TID 0000.0001) >#                   'UVEL    ','VVEL    ','WVEL    ',
(PID.TID 0000.0001) >#                   'THETA   ','SALT    ',
(PID.TID 0000.0001) >#    stat_fname(1)= 'dynStDiag',
(PID.TID 0000.0001) >#     stat_freq(1)= 3153600.,
(PID.TID 0000.0001) ># stat_region(1,1)=  1, 2, 3, 4, 5, 6, 7, 8, 9,
(PID.TID 0000.0001) >#                   10,11,12,13,14,15,16,17
(PID.TID 0000.0001) >##---
(PID.TID 0000.0001) ># stat_fields(1,2)= 'oceTAUX ','oceTAUY ',
(PID.TID 0000.0001) >#                   'surForcT','surForcS','TFLUX   ','SFLUX   ',
(PID.TID 0000.0001) >#                   'oceQnet ','oceSflux','oceFWflx',
(PID.TID 0000.0001) >#    stat_fname(2)= 'surfStDiag',
(PID.TID 0000.0001) >#     stat_freq(2)= 3153600.,
(PID.TID 0000.0001) ># stat_region(1,2)=  1, 2, 3, 4, 5, 6, 7, 8, 9,
(PID.TID 0000.0001) >#                   10,11,12,13,14,15,16,17
(PID.TID 0000.0001) > &
(PID.TID 0000.0001) 
(PID.TID 0000.0001) S/R DIAGNOSTICS_READPARMS, read namelist "diagnostics_list": start
(PID.TID 0000.0001) S/R DIAGNOSTICS_READPARMS, read namelist "diagnostics_list": OK
(PID.TID 0000.0001) S/R DIAGNOSTICS_READPARMS, read namelist "DIAG_STATIS_PARMS": start
(PID.TID 0000.0001) S/R DIAGNOSTICS_READPARMS, read namelist "DIAG_STATIS_PARMS": OK
(PID.TID 0000.0001)  DIAGNOSTICS_READPARMS: global parameter summary:
(PID.TID 0000.0001)  dumpAtLast = /* always write time-ave diags at the end */
(PID.TID 0000.0001)                   T
(PID.TID 0000.0001)     ;
(PID.TID 0000.0001)  diag_mnc =   /* write NetCDF output files */
(PID.TID 0000.0001)                   F
(PID.TID 0000.0001)     ;
(PID.TID 0000.0001)  diagMdsDir = /* directory for mds diagnostics output */
(PID.TID 0000.0001)               'diags'
(PID.TID 0000.0001)     ;
(PID.TID 0000.0001)  diagMdsDirCreate = /* call mkdir to create diagMdsDir */
(PID.TID 0000.0001)                   T
(PID.TID 0000.0001)     ;
(PID.TID 0000.0001)  useMissingValue = /* put MissingValue where mask = 0 */
(PID.TID 0000.0001)                   F
(PID.TID 0000.0001)     ;
(PID.TID 0000.0001)  diagCG_maxIters = /* max number of iters in diag_cg2d */
(PID.TID 0000.0001)                     300
(PID.TID 0000.0001)     ;
(PID.TID 0000.0001)  diagCG_resTarget = /* residual target for diag_cg2d */
(PID.TID 0000.0001)                 1.000000000000000E-07
(PID.TID 0000.0001)     ;
(PID.TID 0000.0001)  diagCG_pcOffDFac = /* preconditioner off-diagonal factor */
(PID.TID 0000.0001)                 9.611687812379854E-01
(PID.TID 0000.0001)     ;
(PID.TID 0000.0001) -----------------------------------------------------
(PID.TID 0000.0001)  DIAGNOSTICS_READPARMS: active diagnostics summary:
(PID.TID 0000.0001) -----------------------------------------------------
(PID.TID 0000.0001) Creating Output Stream: state_2d_set1
(PID.TID 0000.0001) Output Frequency:    2635200.000000 ; Phase:           0.000000
(PID.TID 0000.0001)  Averaging Freq.:    2635200.000000 , Phase:           0.000000 , Cycle:   1
(PID.TID 0000.0001)  missing value: -9.990000000000E+02
(PID.TID 0000.0001)  Levels:    will be set later
(PID.TID 0000.0001)  Fields:    ETAN     DETADT2  PHIBOT   MXLDEPTH oceSPDep oceQnet  oceFWflx oceTAUX  oceTAUY
(PID.TID 0000.0001) Creating Output Stream: state_3d_set1
(PID.TID 0000.0001) Output Frequency:    2635200.000000 ; Phase:           0.000000
(PID.TID 0000.0001)  Averaging Freq.:    2635200.000000 , Phase:           0.000000 , Cycle:   1
(PID.TID 0000.0001)  missing value: -9.990000000000E+02
(PID.TID 0000.0001)  Levels:    will be set later
(PID.TID 0000.0001)  Fields:    THETA    SALT     DRHODR
(PID.TID 0000.0001) Creating Output Stream: trsp_3d_set1
(PID.TID 0000.0001) Output Frequency:    2635200.000000 ; Phase:           0.000000
(PID.TID 0000.0001)  Averaging Freq.:    2635200.000000 , Phase:           0.000000 , Cycle:   1
(PID.TID 0000.0001)  missing value: -9.990000000000E+02
(PID.TID 0000.0001)  Levels:    will be set later
(PID.TID 0000.0001)  Fields:    UVELMASS VVELMASS WVELMASS GM_PsiX  GM_PsiY
(PID.TID 0000.0001) Creating Output Stream: trsp_3d_set2
(PID.TID 0000.0001) Output Frequency:    2635200.000000 ; Phase:           0.000000
(PID.TID 0000.0001)  Averaging Freq.:    2635200.000000 , Phase:           0.000000 , Cycle:   1
(PID.TID 0000.0001)  missing value: -9.990000000000E+02
(PID.TID 0000.0001)  Levels:    will be set later
(PID.TID 0000.0001)  Fields:    DFxE_TH  DFyE_TH  ADVx_TH  ADVy_TH  DFxE_SLT DFyE_SLT ADVx_SLT ADVy_SLT
(PID.TID 0000.0001) -----------------------------------------------------
(PID.TID 0000.0001)  DIAGNOSTICS_READPARMS: statistics diags. summary:
(PID.TID 0000.0001) -----------------------------------------------------
(PID.TID 0000.0001) 
(PID.TID 0000.0001) SET_PARMS: done
 ==> SYSTEM CALL (from DIAGNOSTICS_INI_IO): > mkdir -p diags <
(PID.TID 0000.0001) 
(PID.TID 0000.0001) Enter INI_VERTICAL_GRID: setInterFDr=    T ; setCenterDr=    F
(PID.TID 0000.0001) tile:   4 ; Read from file tile001.mitgrid
(PID.TID 0000.0001)   => xC yC dxF dyF rA xG yG dxV dyU rAz dxC dyC rAw rAs dxG dyG
(PID.TID 0000.0001) %MON XC_max                       =   1.7997758946678E+02
(PID.TID 0000.0001) %MON XC_min                       =  -1.7998895680928E+02
(PID.TID 0000.0001) %MON XC_mean                      =  -6.8997670631350E+00
(PID.TID 0000.0001) %MON XC_sd                        =   1.0548127462941E+02
(PID.TID 0000.0001) %MON XG_max                       =   1.8000000000000E+02
(PID.TID 0000.0001) %MON XG_min                       =  -1.7999919444240E+02
(PID.TID 0000.0001) %MON XG_mean                      =  -6.3521159278861E+00
(PID.TID 0000.0001) %MON XG_sd                        =   1.0549598176576E+02
(PID.TID 0000.0001) %MON DXC_max                      =   1.1117680031365E+05
(PID.TID 0000.0001) %MON DXC_min                      =   1.3362789164732E+04
(PID.TID 0000.0001) %MON DXC_mean                     =   7.1345115143606E+04
(PID.TID 0000.0001) %MON DXC_sd                       =   2.6107013089865E+04
(PID.TID 0000.0001) %MON DXF_max                      =   1.1117680031365E+05
(PID.TID 0000.0001) %MON DXF_min                      =   1.3491575949394E+04
(PID.TID 0000.0001) %MON DXF_mean                     =   7.1334806791260E+04
(PID.TID 0000.0001) %MON DXF_sd                       =   2.6121349328995E+04
(PID.TID 0000.0001) %MON DXG_max                      =   1.1117747335204E+05
(PID.TID 0000.0001) %MON DXG_min                      =   1.0930409249570E+04
(PID.TID 0000.0001) %MON DXG_mean                     =   7.1313583950284E+04
(PID.TID 0000.0001) %MON DXG_sd                       =   2.6131714747840E+04
(PID.TID 0000.0001) %MON DXV_max                      =   1.1117747335204E+05
(PID.TID 0000.0001) %MON DXV_min                      =   9.4742518926426E+03
(PID.TID 0000.0001) %MON DXV_mean                     =   7.1323777998314E+04
(PID.TID 0000.0001) %MON DXV_sd                       =   2.6117603792432E+04
(PID.TID 0000.0001) %MON YC_max                       =   8.9739397429324E+01
(PID.TID 0000.0001) %MON YC_min                       =  -8.1637173529390E+01
(PID.TID 0000.0001) %MON YC_mean                      =  -5.9338515025079E-01
(PID.TID 0000.0001) %MON YC_sd                        =   5.1058908630085E+01
(PID.TID 0000.0001) %MON YG_max                       =   9.0000000000000E+01
(PID.TID 0000.0001) %MON YG_min                       =  -8.1805478609906E+01
(PID.TID 0000.0001) %MON YG_mean                      =  -5.7357831765458E-01
(PID.TID 0000.0001) %MON YG_sd                        =   5.1060174609345E+01
(PID.TID 0000.0001) %MON DYC_max                      =   1.1117680031365E+05
(PID.TID 0000.0001) %MON DYC_min                      =   1.3362789164732E+04
(PID.TID 0000.0001) %MON DYC_mean                     =   7.0982792089666E+04
(PID.TID 0000.0001) %MON DYC_sd                       =   2.6607387075348E+04
(PID.TID 0000.0001) %MON DYF_max                      =   1.1117680031365E+05
(PID.TID 0000.0001) %MON DYF_min                      =   1.3491575949394E+04
(PID.TID 0000.0001) %MON DYF_mean                     =   7.1000127494934E+04
(PID.TID 0000.0001) %MON DYF_sd                       =   2.6603606017547E+04
(PID.TID 0000.0001) %MON DYG_max                      =   1.1117747335204E+05
(PID.TID 0000.0001) %MON DYG_min                      =   1.0930409249570E+04
(PID.TID 0000.0001) %MON DYG_mean                     =   7.1022116512585E+04
(PID.TID 0000.0001) %MON DYG_sd                       =   2.6571715830406E+04
(PID.TID 0000.0001) %MON DYU_max                      =   1.1117747335204E+05
(PID.TID 0000.0001) %MON DYU_min                      =   9.4742518926426E+03
(PID.TID 0000.0001) %MON DYU_mean                     =   7.1004694583927E+04
(PID.TID 0000.0001) %MON DYU_sd                       =   2.6575655787476E+04
(PID.TID 0000.0001) %MON RA_max                       =   1.1896090857160E+10
(PID.TID 0000.0001) %MON RA_min                       =   2.1263387742345E+08
(PID.TID 0000.0001) %MON RA_mean                      =   5.6344293572480E+09
(PID.TID 0000.0001) %MON RA_sd                        =   3.5929461176606E+09
(PID.TID 0000.0001) %MON RAW_max                      =   1.1896090856781E+10
(PID.TID 0000.0001) %MON RAW_min                      =   1.7369571508711E+08
(PID.TID 0000.0001) %MON RAW_mean                     =   5.6355850434318E+09
(PID.TID 0000.0001) %MON RAW_sd                       =   3.5915487677190E+09
(PID.TID 0000.0001) %MON RAS_max                      =   1.1896090856781E+10
(PID.TID 0000.0001) %MON RAS_min                      =   1.7369571508711E+08
(PID.TID 0000.0001) %MON RAS_mean                     =   5.6320332286162E+09
(PID.TID 0000.0001) %MON RAS_sd                       =   3.5937184228135E+09
(PID.TID 0000.0001) %MON RAZ_max                      =   1.1891903479271E+10
(PID.TID 0000.0001) %MON RAZ_min                      =   1.0413402423292E+08
(PID.TID 0000.0001) %MON RAZ_mean                     =   5.6331824674695E+09
(PID.TID 0000.0001) %MON RAZ_sd                       =   3.5923307220197E+09
(PID.TID 0000.0001) %MON AngleCS_max                  =   1.0000000000000E+00
(PID.TID 0000.0001) %MON AngleCS_min                  =  -9.9996641938864E-01
(PID.TID 0000.0001) %MON AngleCS_mean                 =   4.0572930529500E-01
(PID.TID 0000.0001) %MON AngleCS_sd                   =   5.3874397836718E-01
(PID.TID 0000.0001) %MON AngleSN_max                  =   9.9996641938864E-01
(PID.TID 0000.0001) %MON AngleSN_min                  =  -1.0000000000000E+00
(PID.TID 0000.0001) %MON AngleSN_mean                 =  -4.9986154624599E-01
(PID.TID 0000.0001) %MON AngleSN_sd                   =   5.4339404779819E-01
(PID.TID 0000.0001) GAD_INIT_FIXED: GAD_OlMinSize=  2  0  2
(PID.TID 0000.0001) 
(PID.TID 0000.0001) // ===================================
(PID.TID 0000.0001) // GAD parameters :
(PID.TID 0000.0001) // ===================================
(PID.TID 0000.0001) tempAdvScheme =   /* Temp. Horiz.Advection scheme selector */
(PID.TID 0000.0001)                      30
(PID.TID 0000.0001)     ;
(PID.TID 0000.0001) tempVertAdvScheme =   /* Temp. Vert. Advection scheme selector */
(PID.TID 0000.0001)                       3
(PID.TID 0000.0001)     ;
(PID.TID 0000.0001) tempMultiDimAdvec =   /* use Muti-Dim Advec method for Temp */
(PID.TID 0000.0001)                   T
(PID.TID 0000.0001)     ;
(PID.TID 0000.0001) tempSOM_Advection = /* use 2nd Order Moment Advection for Temp */
(PID.TID 0000.0001)                   F
(PID.TID 0000.0001)     ;
(PID.TID 0000.0001) AdamsBashforthGt = /* apply Adams-Bashforth extrapolation on Gt */
(PID.TID 0000.0001)                   F
(PID.TID 0000.0001)     ;
(PID.TID 0000.0001) AdamsBashforth_T = /* apply Adams-Bashforth extrapolation on Temp */
(PID.TID 0000.0001)                   F
(PID.TID 0000.0001)     ;
(PID.TID 0000.0001) saltAdvScheme =   /* Salt. Horiz.advection scheme selector */
(PID.TID 0000.0001)                      30
(PID.TID 0000.0001)     ;
(PID.TID 0000.0001) saltVertAdvScheme =   /* Salt. Vert. Advection scheme selector */
(PID.TID 0000.0001)                       3
(PID.TID 0000.0001)     ;
(PID.TID 0000.0001) saltMultiDimAdvec =   /* use Muti-Dim Advec method for Salt */
(PID.TID 0000.0001)                   T
(PID.TID 0000.0001)     ;
(PID.TID 0000.0001) saltSOM_Advection = /* use 2nd Order Moment Advection for Salt */
(PID.TID 0000.0001)                   F
(PID.TID 0000.0001)     ;
(PID.TID 0000.0001) AdamsBashforthGs = /* apply Adams-Bashforth extrapolation on Gs */
(PID.TID 0000.0001)                   F
(PID.TID 0000.0001)     ;
(PID.TID 0000.0001) AdamsBashforth_S = /* apply Adams-Bashforth extrapolation on Salt */
(PID.TID 0000.0001)                   F
(PID.TID 0000.0001)     ;
(PID.TID 0000.0001) // ===================================
(PID.TID 0000.0001) ------------------------------------------------------------
(PID.TID 0000.0001) DIAGNOSTICS_SET_LEVELS: done
(PID.TID 0000.0001)  Total Nb of available Diagnostics: ndiagt=   205
(PID.TID 0000.0001)  write list of available Diagnostics to file: available_diagnostics.log
(PID.TID 0000.0001) SETDIAG: Allocate  1 x  1 Levels for Diagnostic #    23 ETAN
(PID.TID 0000.0001) SETDIAG: Allocate  1 x  1 Levels for Diagnostic #    25 DETADT2
(PID.TID 0000.0001) SETDIAG: Allocate  1 x  1 Levels for Diagnostic #    73 PHIBOT
(PID.TID 0000.0001) SETDIAG: Allocate  1 x  1 Levels for Diagnostic #    77 MXLDEPTH
(PID.TID 0000.0001) SETDIAG: Allocate  1 x  1 Levels for Diagnostic #   205 oceSPDep
(PID.TID 0000.0001) SETDIAG: Allocate  1 x  1 Levels for Diagnostic #    86 oceQnet
(PID.TID 0000.0001) SETDIAG: Allocate  1 x  1 Levels for Diagnostic #    84 oceFWflx
(PID.TID 0000.0001) SETDIAG: Allocate  1 x  1 Levels for Diagnostic #    80 oceTAUX
(PID.TID 0000.0001) SETDIAG: Allocate  1 x  1 Levels for Diagnostic #    81 oceTAUY
(PID.TID 0000.0001) SETDIAG: Allocate 50 x  1 Levels for Diagnostic #    26 THETA
(PID.TID 0000.0001) SETDIAG: Allocate 50 x  1 Levels for Diagnostic #    27 SALT
(PID.TID 0000.0001) SETDIAG: Allocate 50 x  1 Levels for Diagnostic #    78 DRHODR
(PID.TID 0000.0001) SETDIAG: Allocate 50 x  1 Levels for Diagnostic #    45 UVELMASS
(PID.TID 0000.0001) SETDIAG: Allocate 50 x  1 Levels for Diagnostic #    46 VVELMASS
(PID.TID 0000.0001) SETDIAG: Allocate 50 x  1 Levels for Diagnostic #    47 WVELMASS
(PID.TID 0000.0001) SETDIAG: Allocate 50 x  1 Levels for Diagnostic #   195 GM_PsiX
(PID.TID 0000.0001) SETDIAG: Allocate 50 x  1 Levels for Diagnostic #   196 GM_PsiY
(PID.TID 0000.0001) SETDIAG: Allocate 50 x  1 Levels for Diagnostic #   114 DFxE_TH
(PID.TID 0000.0001) SETDIAG: Allocate 50 x  1 Levels for Diagnostic #   115 DFyE_TH
(PID.TID 0000.0001) SETDIAG: Allocate 50 x  1 Levels for Diagnostic #   111 ADVx_TH
(PID.TID 0000.0001) SETDIAG: Allocate 50 x  1 Levels for Diagnostic #   112 ADVy_TH
(PID.TID 0000.0001) SETDIAG: Allocate 50 x  1 Levels for Diagnostic #   121 DFxE_SLT
(PID.TID 0000.0001) SETDIAG: Allocate 50 x  1 Levels for Diagnostic #   122 DFyE_SLT
(PID.TID 0000.0001) SETDIAG: Allocate 50 x  1 Levels for Diagnostic #   118 ADVx_SLT
(PID.TID 0000.0001) SETDIAG: Allocate 50 x  1 Levels for Diagnostic #   119 ADVy_SLT
(PID.TID 0000.0001)   space allocated for all diagnostics:     809 levels
(PID.TID 0000.0001)   set mate pointer for diag #    80  oceTAUX  , Parms: UU      U1 , mate:    81
(PID.TID 0000.0001)   set mate pointer for diag #    81  oceTAUY  , Parms: VV      U1 , mate:    80
(PID.TID 0000.0001)   set mate pointer for diag #    45  UVELMASS , Parms: UUr     MR , mate:    46
(PID.TID 0000.0001)   set mate pointer for diag #    46  VVELMASS , Parms: VVr     MR , mate:    45
(PID.TID 0000.0001)   set mate pointer for diag #   195  GM_PsiX  , Parms: UU      LR , mate:   196
(PID.TID 0000.0001)   set mate pointer for diag #   196  GM_PsiY  , Parms: VV      LR , mate:   195
(PID.TID 0000.0001)   set mate pointer for diag #   114  DFxE_TH  , Parms: UU      MR , mate:   115
(PID.TID 0000.0001)   set mate pointer for diag #   115  DFyE_TH  , Parms: VV      MR , mate:   114
(PID.TID 0000.0001)   set mate pointer for diag #   111  ADVx_TH  , Parms: UU      MR , mate:   112
(PID.TID 0000.0001)   set mate pointer for diag #   112  ADVy_TH  , Parms: VV      MR , mate:   111
(PID.TID 0000.0001)   set mate pointer for diag #   121  DFxE_SLT , Parms: UU      MR , mate:   122
(PID.TID 0000.0001)   set mate pointer for diag #   122  DFyE_SLT , Parms: VV      MR , mate:   121
(PID.TID 0000.0001)   set mate pointer for diag #   118  ADVx_SLT , Parms: UU      MR , mate:   119
(PID.TID 0000.0001)   set mate pointer for diag #   119  ADVy_SLT , Parms: VV      MR , mate:   118
(PID.TID 0000.0001) DIAGNOSTICS_SET_POINTERS: Set levels for Outp.Stream: state_2d_set1
(PID.TID 0000.0001)  Levels:       1.
(PID.TID 0000.0001) DIAGNOSTICS_SET_POINTERS: Set levels for Outp.Stream: state_3d_set1
(PID.TID 0000.0001)  Levels:       1.   2.   3.   4.   5.   6.   7.   8.   9.  10.  11.  12.  13.  14.  15.  16.  17.  18.  19.  20.
(PID.TID 0000.0001)  Levels:      21.  22.  23.  24.  25.  26.  27.  28.  29.  30.  31.  32.  33.  34.  35.  36.  37.  38.  39.  40.
(PID.TID 0000.0001)  Levels:      41.  42.  43.  44.  45.  46.  47.  48.  49.  50.
(PID.TID 0000.0001) DIAGNOSTICS_SET_POINTERS: Set levels for Outp.Stream: trsp_3d_set1
(PID.TID 0000.0001)  Levels:       1.   2.   3.   4.   5.   6.   7.   8.   9.  10.  11.  12.  13.  14.  15.  16.  17.  18.  19.  20.
(PID.TID 0000.0001)  Levels:      21.  22.  23.  24.  25.  26.  27.  28.  29.  30.  31.  32.  33.  34.  35.  36.  37.  38.  39.  40.
(PID.TID 0000.0001)  Levels:      41.  42.  43.  44.  45.  46.  47.  48.  49.  50.
(PID.TID 0000.0001) DIAGNOSTICS_SET_POINTERS: Set levels for Outp.Stream: trsp_3d_set2
(PID.TID 0000.0001)  Levels:       1.   2.   3.   4.   5.   6.   7.   8.   9.  10.  11.  12.  13.  14.  15.  16.  17.  18.  19.  20.
(PID.TID 0000.0001)  Levels:      21.  22.  23.  24.  25.  26.  27.  28.  29.  30.  31.  32.  33.  34.  35.  36.  37.  38.  39.  40.
(PID.TID 0000.0001)  Levels:      41.  42.  43.  44.  45.  46.  47.  48.  49.  50.
(PID.TID 0000.0001) DIAGNOSTICS_SET_POINTERS: done
(PID.TID 0000.0001) ------------------------------------------------------------
(PID.TID 0000.0001) DIAGSTATS_SET_REGIONS: define   0 regions:
(PID.TID 0000.0001) ------------------------------------------------------------
(PID.TID 0000.0001)   space allocated for all stats-diags:       0 levels
(PID.TID 0000.0001) DIAGSTATS_SET_POINTERS: done
(PID.TID 0000.0001) ------------------------------------------------------------
(PID.TID 0000.0001) INI_GLOBAL_DOMAIN: Found   0 CS-corner Pts in the domain
(PID.TID 0000.0001) %MON fCori_max                    =   1.4584096177006E-04
(PID.TID 0000.0001) %MON fCori_min                    =  -1.4429171327635E-04
(PID.TID 0000.0001) %MON fCori_mean                   =  -1.9531894197173E-06
(PID.TID 0000.0001) %MON fCori_sd                     =   1.0434730642309E-04
(PID.TID 0000.0001) %MON fCoriG_max                   =   1.4584247033981E-04
(PID.TID 0000.0001) %MON fCoriG_min                   =  -1.4435339896041E-04
(PID.TID 0000.0001) %MON fCoriG_mean                  =  -1.9303770726087E-06
(PID.TID 0000.0001) %MON fCoriG_sd                    =   1.0435958182593E-04
(PID.TID 0000.0001) %MON fCoriCos_max                 =   1.4584158744890E-04
(PID.TID 0000.0001) %MON fCoriCos_min                 =   6.6334365221135E-07
(PID.TID 0000.0001) %MON fCoriCos_mean                =   9.3876998486639E-05
(PID.TID 0000.0001) %MON fCoriCos_sd                  =   3.9559575367967E-05
(PID.TID 0000.0001) INI_CG2D: CG2D normalisation factor =  7.1522409280111305E-05
(PID.TID 0000.0001) INI_CG2D: cg2dTolerance = 7.112781640300954E-06 (Area=3.5801386115E+14)
(PID.TID 0000.0001) 
(PID.TID 0000.0001) // =======================================================
(PID.TID 0000.0001) // Model configuration
(PID.TID 0000.0001) // =======================================================
(PID.TID 0000.0001) //
(PID.TID 0000.0001) // "Physical" paramters ( PARM01 in namelist )
(PID.TID 0000.0001) //
(PID.TID 0000.0001) buoyancyRelation = /* Type of relation to get Buoyancy */
(PID.TID 0000.0001)               'OCEANIC'
(PID.TID 0000.0001)     ;
(PID.TID 0000.0001) fluidIsAir   =  /* fluid major constituent is Air */
(PID.TID 0000.0001)                   F
(PID.TID 0000.0001)     ;
(PID.TID 0000.0001) fluidIsWater =  /* fluid major constituent is Water */
(PID.TID 0000.0001)                   T
(PID.TID 0000.0001)     ;
(PID.TID 0000.0001) usingPCoords =  /* use p (or p*) vertical coordinate */
(PID.TID 0000.0001)                   F
(PID.TID 0000.0001)     ;
(PID.TID 0000.0001) usingZCoords =  /* use z (or z*) vertical coordinate */
(PID.TID 0000.0001)                   T
(PID.TID 0000.0001)     ;
(PID.TID 0000.0001) tRef =   /* Reference temperature profile ( oC or K ) */
(PID.TID 0000.0001)     3 @  2.300000000000000E+01,             /* K =  1:  3 */
(PID.TID 0000.0001)     3 @  2.200000000000000E+01,             /* K =  4:  6 */
(PID.TID 0000.0001)                 2.100000000000000E+01,      /* K =  7 */
(PID.TID 0000.0001)     2 @  2.000000000000000E+01,             /* K =  8:  9 */
(PID.TID 0000.0001)                 1.900000000000000E+01,      /* K = 10 */
(PID.TID 0000.0001)     2 @  1.800000000000000E+01,             /* K = 11: 12 */
(PID.TID 0000.0001)                 1.700000000000000E+01,      /* K = 13 */
(PID.TID 0000.0001)     2 @  1.600000000000000E+01,             /* K = 14: 15 */
(PID.TID 0000.0001)                 1.500000000000000E+01,      /* K = 16 */
(PID.TID 0000.0001)                 1.400000000000000E+01,      /* K = 17 */
(PID.TID 0000.0001)                 1.300000000000000E+01,      /* K = 18 */
(PID.TID 0000.0001)                 1.200000000000000E+01,      /* K = 19 */
(PID.TID 0000.0001)                 1.100000000000000E+01,      /* K = 20 */
(PID.TID 0000.0001)     2 @  9.000000000000000E+00,             /* K = 21: 22 */
(PID.TID 0000.0001)                 8.000000000000000E+00,      /* K = 23 */
(PID.TID 0000.0001)                 7.000000000000000E+00,      /* K = 24 */
(PID.TID 0000.0001)     2 @  6.000000000000000E+00,             /* K = 25: 26 */
(PID.TID 0000.0001)     2 @  5.000000000000000E+00,             /* K = 27: 28 */
(PID.TID 0000.0001)     3 @  4.000000000000000E+00,             /* K = 29: 31 */
(PID.TID 0000.0001)     3 @  3.000000000000000E+00,             /* K = 32: 34 */
(PID.TID 0000.0001)     4 @  2.000000000000000E+00,             /* K = 35: 38 */
(PID.TID 0000.0001)    12 @  1.000000000000000E+00              /* K = 39: 50 */
(PID.TID 0000.0001)     ;
(PID.TID 0000.0001) sRef =   /* Reference salinity profile ( psu ) */
(PID.TID 0000.0001)    50 @  3.450000000000000E+01              /* K =  1: 50 */
(PID.TID 0000.0001)     ;
(PID.TID 0000.0001) useStrainTensionVisc= /* Use StrainTension Form of Viscous Operator */
(PID.TID 0000.0001)                   F
(PID.TID 0000.0001)     ;
(PID.TID 0000.0001) useVariableVisc = /* Use variable horizontal viscosity */
(PID.TID 0000.0001)                   T
(PID.TID 0000.0001)     ;
(PID.TID 0000.0001) useHarmonicVisc = /* Use harmonic horizontal viscosity */
(PID.TID 0000.0001)                   T
(PID.TID 0000.0001)     ;
(PID.TID 0000.0001) useBiharmonicVisc= /* Use biharmonic horiz.  viscosity */
(PID.TID 0000.0001)                   T
(PID.TID 0000.0001)     ;
(PID.TID 0000.0001) useSmag3D = /* Use isotropic 3-D Smagorinsky viscosity */
(PID.TID 0000.0001)                   F
(PID.TID 0000.0001)     ;
(PID.TID 0000.0001) viscAh  =   /* Lateral harmonic viscosity ( m^2/s ) */
(PID.TID 0000.0001)                 1.000000000000000E+00
(PID.TID 0000.0001)     ;
(PID.TID 0000.0001) viscAhMax = /* Maximum lateral harmonic viscosity ( m^2/s ) */
(PID.TID 0000.0001)                 1.000000000000000E+21
(PID.TID 0000.0001)     ;
(PID.TID 0000.0001) viscAhGrid = /* Grid dependent lateral harmonic viscosity ( non-dim. ) */
(PID.TID 0000.0001)                 2.000000000000000E-02
(PID.TID 0000.0001)     ;
(PID.TID 0000.0001) useFullLeith = /* Use Full Form of Leith Viscosity on/off flag*/
(PID.TID 0000.0001)                   F
(PID.TID 0000.0001)     ;
(PID.TID 0000.0001) useAreaViscLength = /* Use area for visc length instead of geom. mean*/
(PID.TID 0000.0001)                   F
(PID.TID 0000.0001)     ;
(PID.TID 0000.0001) viscC2leith = /* Leith harmonic visc. factor (on grad(vort),non-dim.) */
(PID.TID 0000.0001)                 0.000000000000000E+00
(PID.TID 0000.0001)     ;
(PID.TID 0000.0001) viscC2leithD = /* Leith harmonic viscosity factor (on grad(div),non-dim.)*/
(PID.TID 0000.0001)                 0.000000000000000E+00
(PID.TID 0000.0001)     ;
(PID.TID 0000.0001) viscC2smag = /* Smagorinsky harmonic viscosity factor (non-dim.) */
(PID.TID 0000.0001)                 0.000000000000000E+00
(PID.TID 0000.0001)     ;
(PID.TID 0000.0001) viscA4  =   /* Lateral biharmonic viscosity ( m^4/s ) */
(PID.TID 0000.0001)                 0.000000000000000E+00
(PID.TID 0000.0001)     ;
(PID.TID 0000.0001) viscA4Max = /* Maximum biharmonic viscosity ( m^2/s ) */
(PID.TID 0000.0001)                 1.000000000000000E+21
(PID.TID 0000.0001)     ;
(PID.TID 0000.0001) viscA4Grid = /* Grid dependent biharmonic viscosity ( non-dim. ) */
(PID.TID 0000.0001)                 0.000000000000000E+00
(PID.TID 0000.0001)     ;
(PID.TID 0000.0001) viscC4leith = /* Leith biharm viscosity factor (on grad(vort), non-dim.)*/
(PID.TID 0000.0001)                 0.000000000000000E+00
(PID.TID 0000.0001)     ;
(PID.TID 0000.0001) viscC4leithD = /* Leith biharm viscosity factor (on grad(div), non-dim.) */
(PID.TID 0000.0001)                 0.000000000000000E+00
(PID.TID 0000.0001)     ;
(PID.TID 0000.0001) viscC4Smag = /* Smagorinsky biharm viscosity factor (non-dim) */
(PID.TID 0000.0001)                 0.000000000000000E+00
(PID.TID 0000.0001)     ;
(PID.TID 0000.0001) no_slip_sides =  /* Viscous BCs: No-slip sides */
(PID.TID 0000.0001)                   T
(PID.TID 0000.0001)     ;
(PID.TID 0000.0001) sideDragFactor = /* side-drag scaling factor (non-dim) */
(PID.TID 0000.0001)                 2.000000000000000E+00
(PID.TID 0000.0001)     ;
(PID.TID 0000.0001) viscArNr = /* vertical profile of vertical viscosity ( m^2/s )*/
(PID.TID 0000.0001)    50 @  5.000000000000000E-05              /* K =  1: 50 */
(PID.TID 0000.0001)     ;
(PID.TID 0000.0001) no_slip_bottom =  /* Viscous BCs: No-slip bottom */
(PID.TID 0000.0001)                   T
(PID.TID 0000.0001)     ;
(PID.TID 0000.0001) bottomVisc_pCell = /* Partial-cell in bottom Visc. BC */
(PID.TID 0000.0001)                   F
(PID.TID 0000.0001)     ;
(PID.TID 0000.0001) bottomDragLinear = /* linear bottom-drag coefficient ( m/s ) */
(PID.TID 0000.0001)                 0.000000000000000E+00
(PID.TID 0000.0001)     ;
(PID.TID 0000.0001) bottomDragQuadratic = /* quadratic bottom-drag coefficient (-) */
(PID.TID 0000.0001)                 1.000000000000000E-03
(PID.TID 0000.0001)     ;
(PID.TID 0000.0001) selectBotDragQuadr = /* select quadratic bottom drag options */
(PID.TID 0000.0001)                       0
(PID.TID 0000.0001)     ;
(PID.TID 0000.0001) diffKhT =   /* Laplacian diffusion of heat laterally ( m^2/s ) */
(PID.TID 0000.0001)                 1.000000000000000E+01
(PID.TID 0000.0001)     ;
(PID.TID 0000.0001) diffK4T =   /* Biharmonic diffusion of heat laterally ( m^4/s ) */
(PID.TID 0000.0001)                 0.000000000000000E+00
(PID.TID 0000.0001)     ;
(PID.TID 0000.0001) diffKhS =   /* Laplacian diffusion of salt laterally ( m^2/s ) */
(PID.TID 0000.0001)                 1.000000000000000E+01
(PID.TID 0000.0001)     ;
(PID.TID 0000.0001) diffK4S =   /* Biharmonic diffusion of salt laterally ( m^4/s ) */
(PID.TID 0000.0001)                 0.000000000000000E+00
(PID.TID 0000.0001)     ;
(PID.TID 0000.0001) diffKrNrT = /* vertical profile of vertical diffusion of Temp ( m^2/s )*/
(PID.TID 0000.0001)    50 @  1.000000000000000E-05              /* K =  1: 50 */
(PID.TID 0000.0001)     ;
(PID.TID 0000.0001) diffKrNrS = /* vertical profile of vertical diffusion of Salt ( m^2/s )*/
(PID.TID 0000.0001)    50 @  1.000000000000000E-05              /* K =  1: 50 */
(PID.TID 0000.0001)     ;
(PID.TID 0000.0001) diffKrBL79surf = /* Surface diffusion for Bryan and Lewis 79 ( m^2/s ) */
(PID.TID 0000.0001)                 0.000000000000000E+00
(PID.TID 0000.0001)     ;
(PID.TID 0000.0001) diffKrBL79deep = /* Deep diffusion for Bryan and Lewis 1979 ( m^2/s ) */
(PID.TID 0000.0001)                 0.000000000000000E+00
(PID.TID 0000.0001)     ;
(PID.TID 0000.0001) diffKrBL79scl = /* Depth scale for Bryan and Lewis 1979 ( m ) */
(PID.TID 0000.0001)                 2.000000000000000E+02
(PID.TID 0000.0001)     ;
(PID.TID 0000.0001) diffKrBL79Ho = /* Turning depth for Bryan and Lewis 1979 ( m ) */
(PID.TID 0000.0001)                -2.000000000000000E+03
(PID.TID 0000.0001)     ;
(PID.TID 0000.0001) ivdc_kappa = /* Implicit Vertical Diffusivity for Convection ( m^2/s) */
(PID.TID 0000.0001)                 1.000000000000000E+01
(PID.TID 0000.0001)     ;
(PID.TID 0000.0001) hMixCriteria=  /* Criteria for mixed-layer diagnostic */
(PID.TID 0000.0001)                -8.000000000000000E-01
(PID.TID 0000.0001)     ;
(PID.TID 0000.0001) dRhoSmall =  /* Parameter for mixed-layer diagnostic */
(PID.TID 0000.0001)                 1.000000000000000E-06
(PID.TID 0000.0001)     ;
(PID.TID 0000.0001) hMixSmooth=  /* Smoothing parameter for mixed-layer diagnostic */
(PID.TID 0000.0001)                 0.000000000000000E+00
(PID.TID 0000.0001)     ;
(PID.TID 0000.0001) eosType =  /* Type of Equation of State */
(PID.TID 0000.0001)               'JMD95Z'
(PID.TID 0000.0001)     ;
(PID.TID 0000.0001) selectP_inEOS_Zc = /* select pressure to use in EOS (0,1,2,3) */
(PID.TID 0000.0001)                       0
(PID.TID 0000.0001)     0= -g*rhoConst*z ; 1= pRef (from tRef,sRef); 2= Hyd P ; 3= Hyd+NH P
(PID.TID 0000.0001)     ;
(PID.TID 0000.0001) HeatCapacity_Cp =  /* Specific heat capacity ( J/kg/K ) */
(PID.TID 0000.0001)                 3.994000000000000E+03
(PID.TID 0000.0001)     ;
(PID.TID 0000.0001) celsius2K = /* 0 degree Celsius converted to Kelvin ( K ) */
(PID.TID 0000.0001)                 2.731500000000000E+02
(PID.TID 0000.0001)     ;
(PID.TID 0000.0001) rhoConst  = /* Reference density (Boussinesq)  ( kg/m^3 ) */
(PID.TID 0000.0001)                 1.029000000000000E+03
(PID.TID 0000.0001)     ;
(PID.TID 0000.0001) rhoFacC = /* normalized Reference density @ cell-Center (-) */
(PID.TID 0000.0001)    50 @  1.000000000000000E+00              /* K =  1: 50 */
(PID.TID 0000.0001)     ;
(PID.TID 0000.0001) rhoFacF = /* normalized Reference density @ W-Interface (-) */
(PID.TID 0000.0001)    51 @  1.000000000000000E+00              /* K =  1: 51 */
(PID.TID 0000.0001)     ;
(PID.TID 0000.0001) rhoConstFresh = /* Fresh-water reference density ( kg/m^3 ) */
(PID.TID 0000.0001)                 1.000000000000000E+03
(PID.TID 0000.0001)     ;
(PID.TID 0000.0001) gravity =   /* Gravitational acceleration ( m/s^2 ) */
(PID.TID 0000.0001)                 9.810000000000000E+00
(PID.TID 0000.0001)     ;
(PID.TID 0000.0001) gBaro =   /* Barotropic gravity ( m/s^2 ) */
(PID.TID 0000.0001)                 9.810000000000000E+00
(PID.TID 0000.0001)     ;
(PID.TID 0000.0001) gravFacC = /* gravity factor (vs surf.) @ cell-Center (-) */
(PID.TID 0000.0001)    50 @  1.000000000000000E+00              /* K =  1: 50 */
(PID.TID 0000.0001)     ;
(PID.TID 0000.0001) gravFacF = /* gravity factor (vs surf.) @ W-Interface (-) */
(PID.TID 0000.0001)    51 @  1.000000000000000E+00              /* K =  1: 51 */
(PID.TID 0000.0001)     ;
(PID.TID 0000.0001) rotationPeriod =   /* Rotation Period ( s ) */
(PID.TID 0000.0001)                 8.616400000000000E+04
(PID.TID 0000.0001)     ;
(PID.TID 0000.0001) omega =   /* Angular velocity ( rad/s ) */
(PID.TID 0000.0001)                 7.292123516990375E-05
(PID.TID 0000.0001)     ;
(PID.TID 0000.0001) f0 =   /* Reference coriolis parameter ( 1/s ) */
(PID.TID 0000.0001)                 1.000000000000000E-04
(PID.TID 0000.0001)     ;
(PID.TID 0000.0001) beta =   /* Beta ( 1/(m.s) ) */
(PID.TID 0000.0001)                 9.999999999999999E-12
(PID.TID 0000.0001)     ;
(PID.TID 0000.0001) fPrime =   /* Second coriolis parameter ( 1/s ) */
(PID.TID 0000.0001)                 0.000000000000000E+00
(PID.TID 0000.0001)     ;
(PID.TID 0000.0001) rigidLid =   /* Rigid lid on/off flag */
(PID.TID 0000.0001)                   F
(PID.TID 0000.0001)     ;
(PID.TID 0000.0001) implicitFreeSurface =   /* Implicit free surface on/off flag */
(PID.TID 0000.0001)                   T
(PID.TID 0000.0001)     ;
(PID.TID 0000.0001) freeSurfFac =   /* Implicit free surface factor */
(PID.TID 0000.0001)                 1.000000000000000E+00
(PID.TID 0000.0001)     ;
(PID.TID 0000.0001) implicSurfPress =  /* Surface Pressure implicit factor (0-1)*/
(PID.TID 0000.0001)                 1.000000000000000E+00
(PID.TID 0000.0001)     ;
(PID.TID 0000.0001) implicDiv2DFlow =  /* Barot. Flow Div. implicit factor (0-1)*/
(PID.TID 0000.0001)                 1.000000000000000E+00
(PID.TID 0000.0001)     ;
(PID.TID 0000.0001) uniformLin_PhiSurf = /* use uniform Bo_surf on/off flag*/
(PID.TID 0000.0001)                   T
(PID.TID 0000.0001)     ;
(PID.TID 0000.0001) uniformFreeSurfLev = /* free-surface level-index is uniform */
(PID.TID 0000.0001)                   T
(PID.TID 0000.0001)     ;
(PID.TID 0000.0001) hFacMin =   /* minimum partial cell factor (hFac) */
(PID.TID 0000.0001)                 2.000000000000000E-01
(PID.TID 0000.0001)     ;
(PID.TID 0000.0001) hFacMinDr = /* minimum partial cell thickness ( m) */
(PID.TID 0000.0001)                 5.000000000000000E+00
(PID.TID 0000.0001)     ;
(PID.TID 0000.0001) exactConserv =  /* Exact Volume Conservation on/off flag*/
(PID.TID 0000.0001)                   T
(PID.TID 0000.0001)     ;
(PID.TID 0000.0001) linFSConserveTr = /* Tracer correction for Lin Free Surface on/off flag*/
(PID.TID 0000.0001)                   F
(PID.TID 0000.0001)     ;
(PID.TID 0000.0001) nonlinFreeSurf = /* Non-linear Free Surf. options (-1,0,1,2,3)*/
(PID.TID 0000.0001)                       4
(PID.TID 0000.0001)      -1,0= Off ; 1,2,3= On, 2=+rescale gU,gV, 3=+update cg2d solv.
(PID.TID 0000.0001)     ;
(PID.TID 0000.0001) hFacInf =   /* lower threshold for hFac (nonlinFreeSurf only)*/
(PID.TID 0000.0001)                 2.000000000000000E-01
(PID.TID 0000.0001)     ;
(PID.TID 0000.0001) hFacSup =   /* upper threshold for hFac (nonlinFreeSurf only)*/
(PID.TID 0000.0001)                 2.000000000000000E+00
(PID.TID 0000.0001)     ;
(PID.TID 0000.0001) select_rStar = /* r* Vertical coord. options (=0 r coord.; >0 uses r*)*/
(PID.TID 0000.0001)                       2
(PID.TID 0000.0001)     ;
(PID.TID 0000.0001) useRealFreshWaterFlux = /* Real Fresh Water Flux on/off flag*/
(PID.TID 0000.0001)                   T
(PID.TID 0000.0001)     ;
(PID.TID 0000.0001) temp_EvPrRn = /* Temp. of Evap/Prec/R (UNSET=use local T)(oC)*/
(PID.TID 0000.0001)                 1.234567000000000E+05
(PID.TID 0000.0001)     ;
(PID.TID 0000.0001) salt_EvPrRn = /* Salin. of Evap/Prec/R (UNSET=use local S)(psu)*/
(PID.TID 0000.0001)                 0.000000000000000E+00
(PID.TID 0000.0001)     ;
(PID.TID 0000.0001) selectAddFluid = /* option for mass source/sink of fluid (=0: off) */
(PID.TID 0000.0001)                       0
(PID.TID 0000.0001)     ;
(PID.TID 0000.0001) temp_addMass = /* Temp. of addMass array (UNSET=use local T)(oC)*/
(PID.TID 0000.0001)                 1.234567000000000E+05
(PID.TID 0000.0001)     ;
(PID.TID 0000.0001) salt_addMass = /* Salin. of addMass array (UNSET=use local S)(psu)*/
(PID.TID 0000.0001)                 0.000000000000000E+00
(PID.TID 0000.0001)     ;
(PID.TID 0000.0001) use3Dsolver = /* use 3-D pressure solver on/off flag */
(PID.TID 0000.0001)                   F
(PID.TID 0000.0001)     ;
(PID.TID 0000.0001) nonHydrostatic =  /* Non-Hydrostatic on/off flag */
(PID.TID 0000.0001)                   F
(PID.TID 0000.0001)     ;
(PID.TID 0000.0001) nh_Am2 = /* Non-Hydrostatic terms scaling factor */
(PID.TID 0000.0001)                 1.000000000000000E+00
(PID.TID 0000.0001)     ;
(PID.TID 0000.0001) implicitNHPress = /* Non-Hyd Pressure implicit factor (0-1)*/
(PID.TID 0000.0001)                 1.000000000000000E+00
(PID.TID 0000.0001)     ;
(PID.TID 0000.0001) selectNHfreeSurf = /* Non-Hyd (free-)Surface option */
(PID.TID 0000.0001)                       0
(PID.TID 0000.0001)     ;
(PID.TID 0000.0001) quasiHydrostatic = /* Quasi-Hydrostatic on/off flag */
(PID.TID 0000.0001)                   F
(PID.TID 0000.0001)     ;
(PID.TID 0000.0001) calc_wVelocity = /* vertical velocity calculation on/off flag */
(PID.TID 0000.0001)                   T
(PID.TID 0000.0001)     ;
(PID.TID 0000.0001) momStepping =  /* Momentum equation on/off flag */
(PID.TID 0000.0001)                   T
(PID.TID 0000.0001)     ;
(PID.TID 0000.0001) vectorInvariantMomentum= /* Vector-Invariant Momentum on/off */
(PID.TID 0000.0001)                   T
(PID.TID 0000.0001)     ;
(PID.TID 0000.0001) momAdvection =  /* Momentum advection on/off flag */
(PID.TID 0000.0001)                   T
(PID.TID 0000.0001)     ;
(PID.TID 0000.0001) momViscosity =  /* Momentum viscosity on/off flag */
(PID.TID 0000.0001)                   T
(PID.TID 0000.0001)     ;
(PID.TID 0000.0001) momImplVertAdv= /* Momentum implicit vert. advection on/off*/
(PID.TID 0000.0001)                   F
(PID.TID 0000.0001)     ;
(PID.TID 0000.0001) implicitViscosity = /* Implicit viscosity on/off flag */
(PID.TID 0000.0001)                   T
(PID.TID 0000.0001)     ;
(PID.TID 0000.0001) selectImplicitDrag= /* Implicit bot Drag options (0,1,2)*/
(PID.TID 0000.0001)                       0
(PID.TID 0000.0001)     0= Expl. ; 1= Impl. on provis. Vel ; 2= Fully Impl (with surf.P)
(PID.TID 0000.0001)     ;
(PID.TID 0000.0001) metricTerms =  /* metric-Terms on/off flag */
(PID.TID 0000.0001)                   F
(PID.TID 0000.0001)     ;
(PID.TID 0000.0001) useNHMTerms = /* Non-Hydrostatic Metric-Terms on/off */
(PID.TID 0000.0001)                   F
(PID.TID 0000.0001)     ;
(PID.TID 0000.0001) selectCoriMap = /* Coriolis Map options (0,1,2,3)*/
(PID.TID 0000.0001)                       2
(PID.TID 0000.0001)     0= f-Plane ; 1= Beta-Plane ; 2= Spherical ; 3= read from file
(PID.TID 0000.0001)     ;
(PID.TID 0000.0001) use3dCoriolis = /* 3-D Coriolis on/off flag */
(PID.TID 0000.0001)                   F
(PID.TID 0000.0001)     ;
(PID.TID 0000.0001) useCoriolis =  /* Coriolis on/off flag */
(PID.TID 0000.0001)                   T
(PID.TID 0000.0001)     ;
(PID.TID 0000.0001) useCDscheme =  /* CD scheme on/off flag */
(PID.TID 0000.0001)                   F
(PID.TID 0000.0001)     ;
(PID.TID 0000.0001) useEnergyConservingCoriolis= /* Flx-Form Coriolis scheme flag */
(PID.TID 0000.0001)                   F
(PID.TID 0000.0001)     ;
(PID.TID 0000.0001) useJamartWetPoints= /* Coriolis WetPoints method flag */
(PID.TID 0000.0001)                   T
(PID.TID 0000.0001)     ;
(PID.TID 0000.0001) useJamartMomAdv= /* V.I Non-linear terms Jamart flag */
(PID.TID 0000.0001)                   F
(PID.TID 0000.0001)     ;
(PID.TID 0000.0001) useAbsVorticity= /* V.I Works with f+zeta in Coriolis */
(PID.TID 0000.0001)                   F
(PID.TID 0000.0001)     ;
(PID.TID 0000.0001) selectVortScheme= /* V.I Scheme selector for Vorticity-Term */
(PID.TID 0000.0001)                       1
(PID.TID 0000.0001)    = 0 : enstrophy (Shallow-Water Eq.) conserving scheme by Sadourny, JAS 75
(PID.TID 0000.0001)    = 1 : same as 0 with modified hFac
(PID.TID 0000.0001)    = 2 : energy conserving scheme (used by Sadourny in JAS 75 paper)
(PID.TID 0000.0001)    = 3 : energy (general) and enstrophy (2D, nonDiv.) conserving scheme
(PID.TID 0000.0001)          from Sadourny (Burridge & Haseler, ECMWF Rep.4, 1977)
(PID.TID 0000.0001)     ;
(PID.TID 0000.0001) upwindVorticity= /* V.I Upwind bias vorticity flag */
(PID.TID 0000.0001)                   F
(PID.TID 0000.0001)     ;
(PID.TID 0000.0001) highOrderVorticity= /* V.I High order vort. advect. flag */
(PID.TID 0000.0001)                   F
(PID.TID 0000.0001)     ;
(PID.TID 0000.0001) upwindShear= /* V.I Upwind vertical Shear advection flag */
(PID.TID 0000.0001)                   F
(PID.TID 0000.0001)     ;
(PID.TID 0000.0001) selectKEscheme= /* V.I Kinetic Energy scheme selector */
(PID.TID 0000.0001)                       0
(PID.TID 0000.0001)     ;
(PID.TID 0000.0001) momForcing =  /* Momentum forcing on/off flag */
(PID.TID 0000.0001)                   T
(PID.TID 0000.0001)     ;
(PID.TID 0000.0001) momPressureForcing =  /* Momentum pressure term on/off flag */
(PID.TID 0000.0001)                   T
(PID.TID 0000.0001)     ;
(PID.TID 0000.0001) implicitIntGravWave= /* Implicit Internal Gravity Wave flag */
(PID.TID 0000.0001)                   F
(PID.TID 0000.0001)     ;
(PID.TID 0000.0001) staggerTimeStep =    /* Stagger time stepping on/off flag */
(PID.TID 0000.0001)                   T
(PID.TID 0000.0001)     ;
(PID.TID 0000.0001) doResetHFactors = /* reset thickness factors @ each time-step */
(PID.TID 0000.0001)                   F
(PID.TID 0000.0001)     ;
(PID.TID 0000.0001) multiDimAdvection =  /* enable/disable Multi-Dim Advection */
(PID.TID 0000.0001)                   T
(PID.TID 0000.0001)     ;
(PID.TID 0000.0001) useMultiDimAdvec =   /* Multi-Dim Advection is/is-not used */
(PID.TID 0000.0001)                   T
(PID.TID 0000.0001)     ;
(PID.TID 0000.0001) implicitDiffusion = /* Implicit Diffusion on/off flag */
(PID.TID 0000.0001)                   T
(PID.TID 0000.0001)     ;
(PID.TID 0000.0001) tempStepping =  /* Temperature equation on/off flag */
(PID.TID 0000.0001)                   T
(PID.TID 0000.0001)     ;
(PID.TID 0000.0001) tempAdvection = /* Temperature advection on/off flag */
(PID.TID 0000.0001)                   T
(PID.TID 0000.0001)     ;
(PID.TID 0000.0001) tempImplVertAdv = /* Temp. implicit vert. advection on/off */
(PID.TID 0000.0001)                   T
(PID.TID 0000.0001)     ;
(PID.TID 0000.0001) tempForcing  =  /* Temperature forcing on/off flag */
(PID.TID 0000.0001)                   T
(PID.TID 0000.0001)     ;
(PID.TID 0000.0001) balanceQnet  =  /* balance net heat-flux on/off flag */
(PID.TID 0000.0001)                   F
(PID.TID 0000.0001)     ;
(PID.TID 0000.0001) doThetaClimRelax = /* apply SST relaxation on/off flag */
(PID.TID 0000.0001)                   F
(PID.TID 0000.0001)     ;
(PID.TID 0000.0001) balanceThetaClimRelax= /* balance SST relaxation on/off flag */
(PID.TID 0000.0001)                   F
(PID.TID 0000.0001)     ;
(PID.TID 0000.0001) tempIsActiveTr = /* Temp. is a dynamically Active Tracer */
(PID.TID 0000.0001)                   T
(PID.TID 0000.0001)     ;
(PID.TID 0000.0001) saltStepping =  /* Salinity equation on/off flag */
(PID.TID 0000.0001)                   T
(PID.TID 0000.0001)     ;
(PID.TID 0000.0001) saltAdvection = /* Salinity advection on/off flag */
(PID.TID 0000.0001)                   T
(PID.TID 0000.0001)     ;
(PID.TID 0000.0001) saltImplVertAdv = /* Sali. implicit vert. advection on/off */
(PID.TID 0000.0001)                   T
(PID.TID 0000.0001)     ;
(PID.TID 0000.0001) saltForcing  =  /* Salinity forcing on/off flag */
(PID.TID 0000.0001)                   T
[...]
(PID.TID 0000.0001) %MON dynstat_theta_del2           =   1.0405116383838E-04
(PID.TID 0000.0001) %MON dynstat_salt_max             =   4.0711545406964E+01
(PID.TID 0000.0001) %MON dynstat_salt_min             =   5.2346189278146E+00
(PID.TID 0000.0001) %MON dynstat_salt_mean            =   3.4725426301463E+01
(PID.TID 0000.0001) %MON dynstat_salt_sd              =   3.7337611259369E-01
(PID.TID 0000.0001) %MON dynstat_salt_del2            =   2.7885811021962E-05
(PID.TID 0000.0001) %MON dynstat_sst_max              =   3.2356056587713E+01
(PID.TID 0000.0001) %MON dynstat_sst_min              =  -1.9173634772358E+00
(PID.TID 0000.0001) %MON dynstat_sst_mean             =   1.8456170706414E+01
(PID.TID 0000.0001) %MON dynstat_sst_sd               =   1.0165506909307E+01
(PID.TID 0000.0001) %MON dynstat_sst_del2             =   8.6145267437295E-04
(PID.TID 0000.0001) %MON dynstat_sss_max              =   3.8332340885729E+01
(PID.TID 0000.0001) %MON dynstat_sss_min              =   5.2346189278146E+00
(PID.TID 0000.0001) %MON dynstat_sss_mean             =   3.4630081765835E+01
(PID.TID 0000.0001) %MON dynstat_sss_sd               =   9.7446371563168E-01
(PID.TID 0000.0001) %MON dynstat_sss_del2             =   6.9829665546951E-04
(PID.TID 0000.0001) %MON forcing_qnet_max             =   2.1298457031250E+03
(PID.TID 0000.0001) %MON forcing_qnet_min             =  -1.9914985351562E+03
(PID.TID 0000.0001) %MON forcing_qnet_mean            =  -1.5732704902843E+01
(PID.TID 0000.0001) %MON forcing_qnet_sd              =   1.8227590448960E+02
(PID.TID 0000.0001) %MON forcing_qnet_del2            =   5.5100923642739E-01
(PID.TID 0000.0001) %MON forcing_qsw_max              =   0.0000000000000E+00
(PID.TID 0000.0001) %MON forcing_qsw_min              =  -4.3655348362566E+02
(PID.TID 0000.0001) %MON forcing_qsw_mean             =  -8.3656412179628E+01
(PID.TID 0000.0001) %MON forcing_qsw_sd               =   1.1893873375072E+02
(PID.TID 0000.0001) %MON forcing_qsw_del2             =   1.8634642444118E-01
(PID.TID 0000.0001) %MON forcing_empmr_max            =   5.9319389984012E-03
(PID.TID 0000.0001) %MON forcing_empmr_min            =  -1.0694424062967E-01
(PID.TID 0000.0001) %MON forcing_empmr_mean           =  -2.7449875102535E-06
(PID.TID 0000.0001) %MON forcing_empmr_sd             =   4.3391433221050E-04
(PID.TID 0000.0001) %MON forcing_empmr_del2           =   2.9221416558067E-06
(PID.TID 0000.0001) %MON forcing_fu_max               =   8.1520849466324E-01
(PID.TID 0000.0001) %MON forcing_fu_min               =  -6.4553257822990E-01
(PID.TID 0000.0001) %MON forcing_fu_mean              =   1.0222335656910E-02
(PID.TID 0000.0001) %MON forcing_fu_sd                =   9.7449968487527E-02
(PID.TID 0000.0001) %MON forcing_fu_del2              =   1.3029489287768E-04
(PID.TID 0000.0001) %MON forcing_fv_max               =   1.0302100777626E+00
(PID.TID 0000.0001) %MON forcing_fv_min               =  -7.5305581874727E-01
(PID.TID 0000.0001) %MON forcing_fv_mean              =  -9.4709303461589E-03
(PID.TID 0000.0001) %MON forcing_fv_sd                =   1.0113188499753E-01
(PID.TID 0000.0001) %MON forcing_fv_del2              =   1.1138786737846E-04
(PID.TID 0000.0001) %MON trAdv_CFL_u_max              =   6.1942180401942E-02
(PID.TID 0000.0001) %MON trAdv_CFL_v_max              =   9.8133832070534E-02
(PID.TID 0000.0001) %MON trAdv_CFL_w_max              =   1.5327005439767E-01
(PID.TID 0000.0001) %MON advcfl_uvel_max              =   5.9237865268254E-02
(PID.TID 0000.0001) %MON advcfl_vvel_max              =   1.0185641426939E-01
(PID.TID 0000.0001) %MON advcfl_wvel_max              =   1.5635285302983E-01
(PID.TID 0000.0001) %MON advcfl_W_hf_max              =   1.6399048505407E-01
(PID.TID 0000.0001) %MON pe_b_mean                    =   5.4557523260413E-04
(PID.TID 0000.0001) %MON ke_max                       =   1.0066809355312E+00
(PID.TID 0000.0001) %MON ke_mean                      =   4.7452256980854E-04
(PID.TID 0000.0001) %MON ke_vol                       =   1.3349982642806E+18
(PID.TID 0000.0001) %MON vort_r_min                   =  -2.4848104085445E-05
(PID.TID 0000.0001) %MON vort_r_max                   =   3.9785880775457E-05
(PID.TID 0000.0001) %MON vort_a_mean                  =  -1.9727864647440E-05
(PID.TID 0000.0001) %MON vort_a_sd                    =   7.4543149789656E-05
(PID.TID 0000.0001) %MON vort_p_mean                  =  -2.1760525962332E-05
(PID.TID 0000.0001) %MON vort_p_sd                    =   9.7242689839453E-05
(PID.TID 0000.0001) %MON surfExpan_theta_mean         =  -3.4227142197831E-07
(PID.TID 0000.0001) %MON surfExpan_salt_mean          =   3.0730354273470E-08
(PID.TID 0000.0001) // =======================================================
(PID.TID 0000.0001) // End MONITOR dynamic field statistics
(PID.TID 0000.0001) // =======================================================
 cg2d: Sum(rhs),rhsMax =  -2.17357400355210E+00  4.72419990104218E-02
 cg2d: Sum(rhs),rhsMax =  -2.18801050369818E+00  4.71657625938448E-02
(PID.TID 0000.0001)      cg2d_init_res =   1.09503117322440E-01
(PID.TID 0000.0001)      cg2d_iters(min,last) =      -1      93
(PID.TID 0000.0001)      cg2d_last_res =   7.01271803376711E-06
(PID.TID 0000.0001) // =======================================================
(PID.TID 0000.0001) // Begin MONITOR dynamic field statistics
(PID.TID 0000.0001) // =======================================================
(PID.TID 0000.0001) %MON time_tsnumber                =                    94
(PID.TID 0000.0001) %MON time_secondsf                =   3.3840000000000E+05
(PID.TID 0000.0001) %MON dynstat_eta_max              =   1.0507567837321E+00
(PID.TID 0000.0001) %MON dynstat_eta_min              =  -1.9900957912891E+00
(PID.TID 0000.0001) %MON dynstat_eta_mean             =   1.1074201643817E-03
(PID.TID 0000.0001) %MON dynstat_eta_sd               =   6.4355036056558E-01
(PID.TID 0000.0001) %MON dynstat_eta_del2             =   7.2979401013306E-05
(PID.TID 0000.0001) %MON dynstat_uvel_max             =   1.1658557636828E+00
(PID.TID 0000.0001) %MON dynstat_uvel_min             =  -8.8128778057485E-01
(PID.TID 0000.0001) %MON dynstat_uvel_mean            =   1.0873152321708E-03
(PID.TID 0000.0001) %MON dynstat_uvel_sd              =   2.1829512408656E-02
(PID.TID 0000.0001) %MON dynstat_uvel_del2            =   1.2688363671383E-05
(PID.TID 0000.0001) %MON dynstat_vvel_max             =   1.4149670929921E+00
(PID.TID 0000.0001) %MON dynstat_vvel_min             =  -8.1400537968302E-01
(PID.TID 0000.0001) %MON dynstat_vvel_mean            =   1.0501077041348E-03
(PID.TID 0000.0001) %MON dynstat_vvel_sd              =   2.2482961145679E-02
(PID.TID 0000.0001) %MON dynstat_vvel_del2            =   1.2931408858956E-05
(PID.TID 0000.0001) %MON dynstat_wvel_max             =   6.2435429093500E-04
(PID.TID 0000.0001) %MON dynstat_wvel_min             =  -8.9344786205580E-04
(PID.TID 0000.0001) %MON dynstat_wvel_mean            =   7.6947395628482E-09
(PID.TID 0000.0001) %MON dynstat_wvel_sd              =   2.4698652766992E-05
(PID.TID 0000.0001) %MON dynstat_wvel_del2            =   2.2979014600044E-08
(PID.TID 0000.0001) %MON dynstat_theta_max            =   3.2341284329214E+01
(PID.TID 0000.0001) %MON dynstat_theta_min            =  -2.0416356827327E+00
(PID.TID 0000.0001) %MON dynstat_theta_mean           =   3.5904314811257E+00
(PID.TID 0000.0001) %MON dynstat_theta_sd             =   4.4360442439312E+00
(PID.TID 0000.0001) %MON dynstat_theta_del2           =   1.0395522025362E-04
(PID.TID 0000.0001) %MON dynstat_salt_max             =   4.0711546852219E+01
(PID.TID 0000.0001) %MON dynstat_salt_min             =   4.9713703428051E+00
(PID.TID 0000.0001) %MON dynstat_salt_mean            =   3.4725423730424E+01
(PID.TID 0000.0001) %MON dynstat_salt_sd              =   3.7337099307545E-01
(PID.TID 0000.0001) %MON dynstat_salt_del2            =   2.7825329451144E-05
(PID.TID 0000.0001) %MON dynstat_sst_max              =   3.2341272816558E+01
(PID.TID 0000.0001) %MON dynstat_sst_min              =  -1.9175291137700E+00
(PID.TID 0000.0001) %MON dynstat_sst_mean             =   1.8457398522547E+01
(PID.TID 0000.0001) %MON dynstat_sst_sd               =   1.0166973179892E+01
(PID.TID 0000.0001) %MON dynstat_sst_del2             =   8.6098451857415E-04
(PID.TID 0000.0001) %MON dynstat_sss_max              =   3.8319462083557E+01
(PID.TID 0000.0001) %MON dynstat_sss_min              =   4.9713703428051E+00
(PID.TID 0000.0001) %MON dynstat_sss_mean             =   3.4630184241429E+01
(PID.TID 0000.0001) %MON dynstat_sss_sd               =   9.7492557375007E-01
(PID.TID 0000.0001) %MON dynstat_sss_del2             =   6.9513517191872E-04
(PID.TID 0000.0001) %MON forcing_qnet_max             =   1.5117458496094E+03
(PID.TID 0000.0001) %MON forcing_qnet_min             =  -8.9550240931562E+02
(PID.TID 0000.0001) %MON forcing_qnet_mean            =  -2.0650673497409E+01
(PID.TID 0000.0001) %MON forcing_qnet_sd              =   1.8459576838264E+02
(PID.TID 0000.0001) %MON forcing_qnet_del2            =   5.0511842285317E-01
(PID.TID 0000.0001) %MON forcing_qsw_max              =   0.0000000000000E+00
(PID.TID 0000.0001) %MON forcing_qsw_min              =  -4.2819024660444E+02
(PID.TID 0000.0001) %MON forcing_qsw_mean             =  -8.6123403606892E+01
(PID.TID 0000.0001) %MON forcing_qsw_sd               =   1.2067843581187E+02
(PID.TID 0000.0001) %MON forcing_qsw_del2             =   1.8944219375602E-01
(PID.TID 0000.0001) %MON forcing_empmr_max            =   5.0075957551599E-03
(PID.TID 0000.0001) %MON forcing_empmr_min            =  -1.1055793613195E-01
(PID.TID 0000.0001) %MON forcing_empmr_mean           =  -2.0885160547871E-06
(PID.TID 0000.0001) %MON forcing_empmr_sd             =   4.4597968838688E-04
(PID.TID 0000.0001) %MON forcing_empmr_del2           =   2.9632126288768E-06
(PID.TID 0000.0001) %MON forcing_fu_max               =   8.2124695181847E-01
(PID.TID 0000.0001) %MON forcing_fu_min               =  -6.4281424880028E-01
(PID.TID 0000.0001) %MON forcing_fu_mean              =   1.0104626038225E-02
(PID.TID 0000.0001) %MON forcing_fu_sd                =   9.7247161722211E-02
(PID.TID 0000.0001) %MON forcing_fu_del2              =   1.2963262724011E-04
(PID.TID 0000.0001) %MON forcing_fv_max               =   1.0369611382484E+00
(PID.TID 0000.0001) %MON forcing_fv_min               =  -7.5716353387705E-01
(PID.TID 0000.0001) %MON forcing_fv_mean              =  -9.5236533400981E-03
(PID.TID 0000.0001) %MON forcing_fv_sd                =   1.0104258643928E-01
(PID.TID 0000.0001) %MON forcing_fv_del2              =   1.1129650010140E-04
(PID.TID 0000.0001) %MON trAdv_CFL_u_max              =   6.1035960410851E-02
(PID.TID 0000.0001) %MON trAdv_CFL_v_max              =   9.6750941490819E-02
(PID.TID 0000.0001) %MON trAdv_CFL_w_max              =   1.5186499506936E-01
(PID.TID 0000.0001) %MON advcfl_uvel_max              =   5.8323327300100E-02
(PID.TID 0000.0001) %MON advcfl_vvel_max              =   1.0046778108430E-01
(PID.TID 0000.0001) %MON advcfl_wvel_max              =   1.5501320768175E-01
(PID.TID 0000.0001) %MON advcfl_W_hf_max              =   1.6258542755691E-01
(PID.TID 0000.0001) %MON pe_b_mean                    =   5.4478421055207E-04
(PID.TID 0000.0001) %MON ke_max                       =   9.7818697128063E-01
(PID.TID 0000.0001) %MON ke_mean                      =   4.7462081856244E-04
(PID.TID 0000.0001) %MON ke_vol                       =   1.3349982707951E+18
(PID.TID 0000.0001) %MON vort_r_min                   =  -2.4441975309595E-05
(PID.TID 0000.0001) %MON vort_r_max                   =   3.9186200901200E-05
(PID.TID 0000.0001) %MON vort_a_mean                  =  -1.9727864647440E-05
(PID.TID 0000.0001) %MON vort_a_sd                    =   7.4543150877641E-05
(PID.TID 0000.0001) %MON vort_p_mean                  =  -2.1760525836310E-05
(PID.TID 0000.0001) %MON vort_p_sd                    =   9.7242706657956E-05
(PID.TID 0000.0001) %MON surfExpan_theta_mean         =  -3.2207714539313E-07
(PID.TID 0000.0001) %MON surfExpan_salt_mean          =   2.9572018853060E-08
(PID.TID 0000.0001) // =======================================================
(PID.TID 0000.0001) // End MONITOR dynamic field statistics
(PID.TID 0000.0001) // =======================================================
 cg2d: Sum(rhs),rhsMax =  -2.20044447014276E+00  4.70827614028613E-02
 cg2d: Sum(rhs),rhsMax =  -2.21268931641857E+00  4.69927048596901E-02
(PID.TID 0000.0001)      cg2d_init_res =   1.08454626192459E-01
(PID.TID 0000.0001)      cg2d_iters(min,last) =      -1      94
(PID.TID 0000.0001)      cg2d_last_res =   6.43215687977900E-06
(PID.TID 0000.0001) // =======================================================
(PID.TID 0000.0001) // Begin MONITOR dynamic field statistics
(PID.TID 0000.0001) // =======================================================
(PID.TID 0000.0001) %MON time_tsnumber                =                    96
(PID.TID 0000.0001) %MON time_secondsf                =   3.4560000000000E+05
(PID.TID 0000.0001) %MON dynstat_eta_max              =   1.0488202554128E+00
(PID.TID 0000.0001) %MON dynstat_eta_min              =  -1.9891052141701E+00
(PID.TID 0000.0001) %MON dynstat_eta_mean             =   1.1199108790255E-03
(PID.TID 0000.0001) %MON dynstat_eta_sd               =   6.4312525748550E-01
(PID.TID 0000.0001) %MON dynstat_eta_del2             =   7.2673424923068E-05
(PID.TID 0000.0001) %MON dynstat_uvel_max             =   1.1679888910664E+00
(PID.TID 0000.0001) %MON dynstat_uvel_min             =  -8.6812918428297E-01
(PID.TID 0000.0001) %MON dynstat_uvel_mean            =   1.1065791312612E-03
(PID.TID 0000.0001) %MON dynstat_uvel_sd              =   2.1818962324809E-02
(PID.TID 0000.0001) %MON dynstat_uvel_del2            =   1.2653496275195E-05
(PID.TID 0000.0001) %MON dynstat_vvel_max             =   1.3961920336755E+00
(PID.TID 0000.0001) %MON dynstat_vvel_min             =  -8.1351237110961E-01
(PID.TID 0000.0001) %MON dynstat_vvel_mean            =   1.0709078778328E-03
(PID.TID 0000.0001) %MON dynstat_vvel_sd              =   2.2498857257560E-02
(PID.TID 0000.0001) %MON dynstat_vvel_del2            =   1.2884688877051E-05
(PID.TID 0000.0001) %MON dynstat_wvel_max             =   6.2582540184215E-04
(PID.TID 0000.0001) %MON dynstat_wvel_min             =  -9.0012188093305E-04
(PID.TID 0000.0001) %MON dynstat_wvel_mean            =   8.4958596995729E-09
(PID.TID 0000.0001) %MON dynstat_wvel_sd              =   2.4519563907341E-05
(PID.TID 0000.0001) %MON dynstat_wvel_del2            =   2.2769398181306E-08
(PID.TID 0000.0001) %MON dynstat_theta_max            =   3.2326370203823E+01
(PID.TID 0000.0001) %MON dynstat_theta_min            =  -2.0416357350453E+00
(PID.TID 0000.0001) %MON dynstat_theta_mean           =   3.5904419399504E+00
(PID.TID 0000.0001) %MON dynstat_theta_sd             =   4.4360946451155E+00
(PID.TID 0000.0001) %MON dynstat_theta_del2           =   1.0386542929185E-04
(PID.TID 0000.0001) %MON dynstat_salt_max             =   4.0711548203446E+01
(PID.TID 0000.0001) %MON dynstat_salt_min             =   4.6384659158797E+00
(PID.TID 0000.0001) %MON dynstat_salt_mean            =   3.4725421279675E+01
(PID.TID 0000.0001) %MON dynstat_salt_sd              =   3.7336619228144E-01
(PID.TID 0000.0001) %MON dynstat_salt_del2            =   2.7780581361729E-05
(PID.TID 0000.0001) %MON dynstat_sst_max              =   3.2326358567962E+01
(PID.TID 0000.0001) %MON dynstat_sst_min              =  -1.9176789666247E+00
(PID.TID 0000.0001) %MON dynstat_sst_mean             =   1.8458836261621E+01
(PID.TID 0000.0001) %MON dynstat_sst_sd               =   1.0168534029768E+01
(PID.TID 0000.0001) %MON dynstat_sst_del2             =   8.6072546353993E-04
(PID.TID 0000.0001) %MON dynstat_sss_max              =   3.8307118232155E+01
(PID.TID 0000.0001) %MON dynstat_sss_min              =   4.6384659158797E+00
(PID.TID 0000.0001) %MON dynstat_sss_mean             =   3.4630276787721E+01
(PID.TID 0000.0001) %MON dynstat_sss_sd               =   9.7545781520491E-01
(PID.TID 0000.0001) %MON dynstat_sss_del2             =   6.9344097808723E-04
(PID.TID 0000.0001) %MON forcing_qnet_max             =   2.8201052246094E+03
(PID.TID 0000.0001) %MON forcing_qnet_min             =  -1.1941887207031E+03
(PID.TID 0000.0001) %MON forcing_qnet_mean            =  -2.2720952553572E+01
(PID.TID 0000.0001) %MON forcing_qnet_sd              =   1.8709940918161E+02
(PID.TID 0000.0001) %MON forcing_qnet_del2            =   5.5225666093998E-01
(PID.TID 0000.0001) %MON forcing_qsw_max              =   0.0000000000000E+00
(PID.TID 0000.0001) %MON forcing_qsw_min              =  -4.2423956794665E+02
(PID.TID 0000.0001) %MON forcing_qsw_mean             =  -8.7790592931618E+01
(PID.TID 0000.0001) %MON forcing_qsw_sd               =   1.2140841913769E+02
(PID.TID 0000.0001) %MON forcing_qsw_del2             =   1.9168450456140E-01
(PID.TID 0000.0001) %MON forcing_empmr_max            =   5.4394532926381E-03
(PID.TID 0000.0001) %MON forcing_empmr_min            =  -9.3655750155449E-02
(PID.TID 0000.0001) %MON forcing_empmr_mean           =  -1.7714513750843E-06
(PID.TID 0000.0001) %MON forcing_empmr_sd             =   3.9014023876972E-04
(PID.TID 0000.0001) %MON forcing_empmr_del2           =   2.6507375944076E-06
(PID.TID 0000.0001) %MON forcing_fu_max               =   8.2692646980286E-01
(PID.TID 0000.0001) %MON forcing_fu_min               =  -6.4187207818031E-01
(PID.TID 0000.0001) %MON forcing_fu_mean              =   9.9338438218074E-03
(PID.TID 0000.0001) %MON forcing_fu_sd                =   9.7001867293409E-02
(PID.TID 0000.0001) %MON forcing_fu_del2              =   1.2911377466732E-04
(PID.TID 0000.0001) %MON forcing_fv_max               =   1.0366144776344E+00
(PID.TID 0000.0001) %MON forcing_fv_min               =  -7.5555461730685E-01
(PID.TID 0000.0001) %MON forcing_fv_mean              =  -9.5585547129074E-03
(PID.TID 0000.0001) %MON forcing_fv_sd                =   1.0107358220529E-01
(PID.TID 0000.0001) %MON forcing_fv_del2              =   1.1152096499191E-04
(PID.TID 0000.0001) %MON trAdv_CFL_u_max              =   6.0173156060636E-02
(PID.TID 0000.0001) %MON trAdv_CFL_v_max              =   9.5422866934267E-02
(PID.TID 0000.0001) %MON trAdv_CFL_w_max              =   1.4990533730338E-01
(PID.TID 0000.0001) %MON advcfl_uvel_max              =   5.7452495847245E-02
(PID.TID 0000.0001) %MON advcfl_vvel_max              =   9.9134683969450E-02
(PID.TID 0000.0001) %MON advcfl_wvel_max              =   1.5314535334153E-01
(PID.TID 0000.0001) %MON advcfl_W_hf_max              =   1.6062572968180E-01
(PID.TID 0000.0001) %MON pe_b_mean                    =   5.4406476061256E-04
(PID.TID 0000.0001) %MON ke_max                       =   9.5144501743310E-01
(PID.TID 0000.0001) %MON ke_mean                      =   4.7478530807200E-04
(PID.TID 0000.0001) %MON ke_vol                       =   1.3349982756641E+18
(PID.TID 0000.0001) %MON vort_r_min                   =  -2.4048807113682E-05
(PID.TID 0000.0001) %MON vort_r_max                   =   3.8615307924848E-05
(PID.TID 0000.0001) %MON vort_a_mean                  =  -1.9727864647440E-05
(PID.TID 0000.0001) %MON vort_a_sd                    =   7.4543151804960E-05
(PID.TID 0000.0001) %MON vort_p_mean                  =  -2.1760525741928E-05
(PID.TID 0000.0001) %MON vort_p_sd                    =   9.7242747894850E-05
(PID.TID 0000.0001) %MON surfExpan_theta_mean         =  -3.0497328577849E-07
(PID.TID 0000.0001) %MON surfExpan_salt_mean          =   2.3965405665956E-08
(PID.TID 0000.0001) // =======================================================
(PID.TID 0000.0001) // End MONITOR dynamic field statistics
(PID.TID 0000.0001) // =======================================================
 cg2d: Sum(rhs),rhsMax =  -2.22311602103409E+00  4.68983185290304E-02
