(PID.TID 0000.0001) 
(PID.TID 0000.0001) // ======================================================
(PID.TID 0000.0001) //                      MITgcm UV
(PID.TID 0000.0001) //                      =========
(PID.TID 0000.0001) // ======================================================
(PID.TID 0000.0001) // execution environment starting up...
(PID.TID 0000.0001) 
(PID.TID 0000.0001) // MITgcmUV version:  checkpoint67e
(PID.TID 0000.0001) // Build user:        heracles
(PID.TID 0000.0001) // Build host:        heracles
(PID.TID 0000.0001) // Build date:        Thu Nov 29 18:13:24 EST 2018
(PID.TID 0000.0001) 
(PID.TID 0000.0001) // =======================================================
(PID.TID 0000.0001) // Execution Environment parameter file "eedata"
(PID.TID 0000.0001) // =======================================================
(PID.TID 0000.0001) ># Example "eedata" file
(PID.TID 0000.0001) ># Lines beginning "#" are comments
(PID.TID 0000.0001) ># nTx - No. threads per process in X
(PID.TID 0000.0001) ># nTy - No. threads per process in Y
(PID.TID 0000.0001) > &EEPARMS
(PID.TID 0000.0001) > useCubedSphereExchange=.TRUE.,
(PID.TID 0000.0001) > nTx=1,
(PID.TID 0000.0001) > nTy=1,
(PID.TID 0000.0001) > debugMode=.TRUE.,
(PID.TID 0000.0001) > /
(PID.TID 0000.0001) ># Note: Some systems use & as the namelist terminator (as shown here).
(PID.TID 0000.0001) >#       Other systems use a / character.
(PID.TID 0000.0001) 
(PID.TID 0000.0001) // =======================================================
(PID.TID 0000.0001) // Computational Grid Specification ( see files "SIZE.h" )
(PID.TID 0000.0001) //                                  ( and "eedata"       )
(PID.TID 0000.0001) // =======================================================
(PID.TID 0000.0001)      nPx =    6 ; /* No. processes in X */
(PID.TID 0000.0001)      nPy =    1 ; /* No. processes in Y */
(PID.TID 0000.0001)      nSx =    1 ; /* No. tiles in X per process */
(PID.TID 0000.0001)      nSy =    1 ; /* No. tiles in Y per process */
(PID.TID 0000.0001)      sNx =   32 ; /* Tile size in X */
(PID.TID 0000.0001)      sNy =   32 ; /* Tile size in Y */
(PID.TID 0000.0001)      OLx =    4 ; /* Tile overlap distance in X */
(PID.TID 0000.0001)      OLy =    4 ; /* Tile overlap distance in Y */
(PID.TID 0000.0001)      nTx =    1 ; /* No. threads in X per process */
(PID.TID 0000.0001)      nTy =    1 ; /* No. threads in Y per process */
(PID.TID 0000.0001)       Nr =   16 ; /* No. levels in the vertical   */
(PID.TID 0000.0001)       Nx =  192 ; /* Total domain size in X ( = nPx*nSx*sNx ) */
(PID.TID 0000.0001)       Ny =   32 ; /* Total domain size in Y ( = nPy*nSy*sNy ) */
(PID.TID 0000.0001)   nTiles =    1 ; /* Total no. tiles per process ( = nSx*nSy ) */
(PID.TID 0000.0001)   nProcs =    6 ; /* Total no. processes ( = nPx*nPy ) */
(PID.TID 0000.0001) nThreads =    1 ; /* Total no. threads per process ( = nTx*nTy ) */
(PID.TID 0000.0001) usingMPI =    T ; /* Flag used to control whether MPI is in use */
(PID.TID 0000.0001)                   /*  note: To execute a program with MPI calls */
(PID.TID 0000.0001)                   /*  it must be launched appropriately e.g     */
(PID.TID 0000.0001)                   /*  "mpirun -np 64 ......"                    */
(PID.TID 0000.0001) useCoupler=    F ;/* Flag used to control communications with   */
(PID.TID 0000.0001)                   /*  other model components, through a coupler */
(PID.TID 0000.0001) debugMode =    T ; /* print debug msg. (sequence of S/R calls)  */
(PID.TID 0000.0001) printMapIncludesZeros=    F ; /* print zeros in Std.Output maps */
(PID.TID 0000.0001) maxLengthPrt1D=   65 /* maxLength of 1D array printed to StdOut */
(PID.TID 0000.0001) 
(PID.TID 0000.0001) ======= Starting MPI parallel Run =========
(PID.TID 0000.0001)  My Processor Name (len:  8 ) = heracles
(PID.TID 0000.0001)  Located at (  0,  0) on processor grid (0:  5,0:  0)
(PID.TID 0000.0001)  Origin at  (     1,     1) on global grid (1:   192,1:    32)
(PID.TID 0000.0001)  North neighbor = processor 0000
(PID.TID 0000.0001)  South neighbor = processor 0000
(PID.TID 0000.0001)   East neighbor = processor 0001
(PID.TID 0000.0001)   West neighbor = processor 0005
(PID.TID 0000.0001) // ======================================================
(PID.TID 0000.0001) // Mapping of tiles to threads
(PID.TID 0000.0001) // ======================================================
(PID.TID 0000.0001) // -o- Thread   1, tiles (   1:   1,   1:   1)
(PID.TID 0000.0001) 
(PID.TID 0000.0001) W2_READPARMS: file data.exch2 not found
(PID.TID 0000.0001) => use W2_EXCH2 default: regular 6-facets Cube
(PID.TID 0000.0001) W2_useE2ioLayOut=    T ;/* T: use Exch2 glob IO map; F: use model default */
(PID.TID 0000.0001) W2_mapIO        =  -1 ; /* select option for Exch2 global-IO map */
(PID.TID 0000.0001) W2_printMsg     =  -1 ; /* select option for printing information */
(PID.TID 0000.0001) ===== Start setting W2 TOPOLOGY:
(PID.TID 0000.0001)  write to log-file: w2_tile_topology.0000.log
(PID.TID 0000.0001) =====       setting W2 TOPOLOGY: Done
(PID.TID 0000.0001) 
(PID.TID 0000.0001) DEBUG_MSG: ENTERED S/R INITIALISE_FIXED
(PID.TID 0000.0001) DEBUG_MSG: CALLING S/R INI_PARMS
(PID.TID 0000.0001)  INI_PARMS: opening model parameter file "data"
(PID.TID 0000.0001)  OPEN_COPY_DATA_FILE: opening file data
(PID.TID 0000.0001) // =======================================================
(PID.TID 0000.0001) // Parameter file "data"
(PID.TID 0000.0001) // =======================================================
(PID.TID 0000.0001) ># ====================
(PID.TID 0000.0001) ># | Model parameters |
(PID.TID 0000.0001) ># ====================
(PID.TID 0000.0001) >#
(PID.TID 0000.0001) ># Continuous equation parameters
(PID.TID 0000.0001) > &PARM01
(PID.TID 0000.0001) > tRef=16*20.,
(PID.TID 0000.0001) > sRef=16*35.,
(PID.TID 0000.0001) > viscAh =3.E5,
(PID.TID 0000.0001) > viscAr =1.E-3,
(PID.TID 0000.0001) > diffKrT=3.E-5,
(PID.TID 0000.0001) > diffKrS=3.E-5,
(PID.TID 0000.0001) > ivdc_kappa=10.,
(PID.TID 0000.0001) > implicitDiffusion=.TRUE.,
(PID.TID 0000.0001) > rhonil=1035.,
(PID.TID 0000.0001) > rhoConstFresh=1000.,
(PID.TID 0000.0001) > eosType='JMD95Z',
(PID.TID 0000.0001) > staggerTimeStep=.TRUE.,
(PID.TID 0000.0001) > vectorInvariantMomentum=.TRUE.,
(PID.TID 0000.0001) > implicitFreeSurface=.TRUE.,
(PID.TID 0000.0001) > exactConserv=.TRUE.,
(PID.TID 0000.0001) > select_rStar=2,
(PID.TID 0000.0001) > nonlinFreeSurf=4,
(PID.TID 0000.0001) > useRealFreshWaterFlux=.TRUE.,
(PID.TID 0000.0001) > allowFreezing=.TRUE.,
(PID.TID 0000.0001) > hFacMin=.1,
(PID.TID 0000.0001) > hFacMinDr=20.,
(PID.TID 0000.0001) > readBinaryPrec=64,
(PID.TID 0000.0001) > useSingleCpuIo=.TRUE.,
(PID.TID 0000.0001) > debugLevel=5,
(PID.TID 0000.0001) > /
(PID.TID 0000.0001) >
(PID.TID 0000.0001) ># Elliptic solver parameters
(PID.TID 0000.0001) > &PARM02
(PID.TID 0000.0001) > /
(PID.TID 0000.0001) >
(PID.TID 0000.0001) ># Time stepping parameters
(PID.TID 0000.0001) > &PARM03
(PID.TID 0000.0001) > nIter0           = 0,
(PID.TID 0000.0001) > nTimeSteps       = 96,
(PID.TID 0000.0001) > deltaT           = 900.,
(PID.TID 0000.0001) > monitorFreq      = 1.,
(PID.TID 0000.0001) > abEps            = 0.1,
(PID.TID 0000.0001) > tracForcingOutAB = 1,
(PID.TID 0000.0001) > /
(PID.TID 0000.0001) >
(PID.TID 0000.0001) ># Gridding parameters
(PID.TID 0000.0001) > &PARM04
(PID.TID 0000.0001) > usingCurvilinearGrid=.TRUE.,
(PID.TID 0000.0001) > horizGridFile='grid_cs32',
(PID.TID 0000.0001) > delR= 25., 25., 70., 100., 140., 190.,
(PID.TID 0000.0001) >       240., 290., 340., 390., 440.,
(PID.TID 0000.0001) >       490., 540., 590., 640., 690.,
(PID.TID 0000.0001) > /
(PID.TID 0000.0001) >
(PID.TID 0000.0001) ># Input datasets
(PID.TID 0000.0001) > &PARM05
(PID.TID 0000.0001) > bathyFile      ='bathy_Hmin50.bin',
(PID.TID 0000.0001) > /
(PID.TID 0000.0001) 
(PID.TID 0000.0001)  INI_PARMS ; starts to read PARM01
(PID.TID 0000.0001)  INI_PARMS ; read PARM01 : OK
(PID.TID 0000.0001)  INI_PARMS ; starts to read PARM02
(PID.TID 0000.0001)  INI_PARMS ; read PARM02 : OK
(PID.TID 0000.0001)  INI_PARMS ; starts to read PARM03
(PID.TID 0000.0001)  INI_PARMS ; read PARM03 : OK
(PID.TID 0000.0001)  INI_PARMS ; starts to read PARM04
(PID.TID 0000.0001)  INI_PARMS ; read PARM04 : OK
(PID.TID 0000.0001)  INI_PARMS ; starts to read PARM05
(PID.TID 0000.0001)  INI_PARMS ; read PARM05 : OK
(PID.TID 0000.0001)  INI_PARMS: finished reading file "data"
(PID.TID 0000.0001) DEBUG_MSG: CALLING S/R PACKAGES_BOOT
(PID.TID 0000.0001)  PACKAGES_BOOT: opening data.pkg
(PID.TID 0000.0001)  OPEN_COPY_DATA_FILE: opening file data.pkg
(PID.TID 0000.0001) // =======================================================
(PID.TID 0000.0001) // Parameter file "data.pkg"
(PID.TID 0000.0001) // =======================================================
(PID.TID 0000.0001) ># Packages
(PID.TID 0000.0001) > &PACKAGES
(PID.TID 0000.0001) > useGMRedi=.TRUE.,
(PID.TID 0000.0001) > useDiagnostics=.TRUE.,
(PID.TID 0000.0001) > /
(PID.TID 0000.0001) 
(PID.TID 0000.0001)  PACKAGES_BOOT: finished reading data.pkg
(PID.TID 0000.0001)  PACKAGES_BOOT: On/Off package Summary
 --------  pkgs with a standard "usePKG" On/Off switch in "data.pkg":  --------
 pkg/gmredi               compiled   and   used ( useGMRedi                = T )
 pkg/bulk_force           compiled but not used ( useBulkForce             = F )
 pkg/diagnostics          compiled   and   used ( useDiagnostics           = T )
 -------- pkgs without standard "usePKG" On/Off switch in "data.pkg":  --------
 pkg/generic_advdiff      compiled   and   used ( useGAD                   = T )
 pkg/mom_common           compiled   and   used ( momStepping              = T )
 pkg/mom_vecinv           compiled   and   used ( +vectorInvariantMomentum = T )
 pkg/mom_fluxform         compiled but not used ( & not vectorInvariantMom = F )
 pkg/monitor              compiled   and   used ( monitorFreq > 0.         = T )
 pkg/timeave              compiled but not used ( taveFreq > 0.            = F )
 pkg/debug                compiled   and   used ( debugMode                = T )
 pkg/exch2                compiled   and   used
 pkg/rw                   compiled   and   used
 pkg/mdsio                compiled   and   used
(PID.TID 0000.0001)  PACKAGES_BOOT: End of package Summary
(PID.TID 0000.0001) 
(PID.TID 0000.0001) DEBUG_MSG: CALLING S/R PACKAGES_READPARMS
(PID.TID 0000.0001)  GM_READPARMS: opening data.gmredi
(PID.TID 0000.0001)  OPEN_COPY_DATA_FILE: opening file data.gmredi
(PID.TID 0000.0001) // =======================================================
(PID.TID 0000.0001) // Parameter file "data.gmredi"
(PID.TID 0000.0001) // =======================================================
(PID.TID 0000.0001) ># GM+Redi package parameters:
(PID.TID 0000.0001) >
(PID.TID 0000.0001) >#-from MOM :
(PID.TID 0000.0001) ># GM_background_K: 	G & Mc.W  diffusion coefficient
(PID.TID 0000.0001) ># GM_maxSlope    :	max slope of isopycnals
(PID.TID 0000.0001) ># GM_Scrit       :	transition for scaling diffusion coefficient
(PID.TID 0000.0001) ># GM_Sd          :	half width scaling for diffusion coefficient
(PID.TID 0000.0001) ># GM_taper_scheme:	slope clipping or one of the tapering schemes
(PID.TID 0000.0001) ># GM_Kmin_horiz  :	horizontal diffusion minimum value
(PID.TID 0000.0001) >
(PID.TID 0000.0001) >#-Option parameters (needs to "define" options in GMREDI_OPTIONS.h")
(PID.TID 0000.0001) ># GM_isopycK     :	isopycnal diffusion coefficient (default=GM_background_K)
(PID.TID 0000.0001) ># GM_AdvForm     :	turn on GM Advective form       (default=Skew flux form)
(PID.TID 0000.0001) >
(PID.TID 0000.0001) > &GM_PARM01
(PID.TID 0000.0001) >  GM_background_K    = 800.,
(PID.TID 0000.0001) >  GM_taper_scheme    = 'gkw91',
(PID.TID 0000.0001) >  GM_maxSlope        = 1.e-2,
(PID.TID 0000.0001) >  GM_Kmin_horiz      = 50.,
(PID.TID 0000.0001) >  GM_Scrit           = 4.e-3,
(PID.TID 0000.0001) >  GM_Sd              = 1.e-3,
(PID.TID 0000.0001) ># GM_Visbeck_alpha   = 0.,
(PID.TID 0000.0001) ># GM_Visbeck_length  = 2.e+5,
(PID.TID 0000.0001) ># GM_Visbeck_depth   = 1.e+3,
(PID.TID 0000.0001) ># GM_Visbeck_maxval_K= 2.5e+3,
(PID.TID 0000.0001) > /
(PID.TID 0000.0001) >
(PID.TID 0000.0001) >
(PID.TID 0000.0001) 
(PID.TID 0000.0001)  GM_READPARMS: finished reading data.gmredi
(PID.TID 0000.0001)  DIAGNOSTICS_READPARMS: opening data.diagnostics
(PID.TID 0000.0001)  OPEN_COPY_DATA_FILE: opening file data.diagnostics
(PID.TID 0000.0001) // =======================================================
(PID.TID 0000.0001) // Parameter file "data.diagnostics"
(PID.TID 0000.0001) // =======================================================
(PID.TID 0000.0001) ># Diagnostic Package Choices
(PID.TID 0000.0001) >#--------------------
(PID.TID 0000.0001) >#  dumpAtLast (logical): always write output at the end of simulation (default=F)
(PID.TID 0000.0001) >#  diag_mnc   (logical): write to NetCDF files (default=useMNC)
(PID.TID 0000.0001) >#--for each output-stream:
(PID.TID 0000.0001) >#  fileName(n) : prefix of the output file name (max 80c long) for outp.stream n
(PID.TID 0000.0001) >#  frequency(n):< 0 : write snap-shot output every |frequency| seconds
(PID.TID 0000.0001) >#               > 0 : write time-average output every frequency seconds
(PID.TID 0000.0001) >#  timePhase(n)     : write at time = timePhase + multiple of |frequency|
(PID.TID 0000.0001) >#    averagingFreq  : frequency (in s) for periodic averaging interval
(PID.TID 0000.0001) >#    averagingPhase : phase     (in s) for periodic averaging interval
(PID.TID 0000.0001) >#    repeatCycle    : number of averaging intervals in 1 cycle
(PID.TID 0000.0001) >#  levels(:,n) : list of levels to write to file (Notes: declared as REAL)
(PID.TID 0000.0001) >#                when this entry is missing, select all common levels of this list
(PID.TID 0000.0001) >#  fields(:,n) : list of selected diagnostics fields (8.c) in outp.stream n
(PID.TID 0000.0001) >#                (see "available_diagnostics.log" file for the full list of diags)
(PID.TID 0000.0001) >#  missing_value(n) : missing value for real-type fields in output file "n"
(PID.TID 0000.0001) >#  fileFlags(n)     : specific code (8c string) for output file "n"
(PID.TID 0000.0001) >#--------------------
(PID.TID 0000.0001) ># oceTAUX  zonal surface wind stress, >0 increases uVel (N/m^2)
(PID.TID 0000.0001) ># oceTAUY  meridional surf. wind stress, >0 increases vVel (N/m^2)
(PID.TID 0000.0001) ># oceFWflx net surface Fresh-Water flux into ocean, >0 decreases salinity (kg/m^2/s)
(PID.TID 0000.0001) ># oceSflux net surface Salt flux into the ocean, >0 increases salinity (g/m^2/s)
(PID.TID 0000.0001) ># oceQnet  net surface heat flux into the ocean, >0 increases theta (W/m^2)
(PID.TID 0000.0001) ># oceQsw   net Short-Wave radiation (+=down), >0 increases theta (W/m^2)
(PID.TID 0000.0001) ># SSS      Sea Surface Salinity (g/kg)
(PID.TID 0000.0001) ># SST      Sea Surface Temperature (degC)
(PID.TID 0000.0001) ># UVEL1    Zonal Surface Velocity (m/s)
(PID.TID 0000.0001) ># VVEL1    Meridional Surface Velocity (m/s)
(PID.TID 0000.0001) >
(PID.TID 0000.0001) > &DIAGNOSTICS_LIST
(PID.TID 0000.0001) >   frequency(1)  = -3600.,
(PID.TID 0000.0001) >    fields(1,1)  = 'oceTAUX ',
(PID.TID 0000.0001) >    filename(1)  = 'oceTAUX',
(PID.TID 0000.0001) >   frequency(2)  = -3600.,
(PID.TID 0000.0001) >    fields(1,2)  = 'oceTAUY ',
(PID.TID 0000.0001) >    filename(2)  = 'oceTAUY',
(PID.TID 0000.0001) >   frequency(3)  = -3600.,
(PID.TID 0000.0001) >    fields(1,3)  = 'oceFWflx',
(PID.TID 0000.0001) >    filename(3)  = 'oceFWflx',
(PID.TID 0000.0001) >   frequency(4)  = -3600.,
(PID.TID 0000.0001) >    fields(1,4)  = 'oceSflux',
(PID.TID 0000.0001) >    filename(4)  = 'oceSflux',
(PID.TID 0000.0001) >   frequency(5)  = -3600.,
(PID.TID 0000.0001) >    fields(1,5)  = 'oceQnet ',
(PID.TID 0000.0001) >    filename(5)  = 'oceQnet',
(PID.TID 0000.0001) >   frequency(6)  = -3600.,
(PID.TID 0000.0001) >    fields(1,6)  = 'oceQsw  ',
(PID.TID 0000.0001) >    filename(6)  = 'oceQsw',
(PID.TID 0000.0001) >   frequency(7)  = -3600.,
(PID.TID 0000.0001) >    fields(1,7)  = 'SALT    ',
(PID.TID 0000.0001) >    levels(1,7)  = 1.,
(PID.TID 0000.0001) >    filename(7)  = 'SSS',
(PID.TID 0000.0001) >   frequency(8)  = -3600.,
(PID.TID 0000.0001) >    fields(1,8)  = 'THETA   ',
(PID.TID 0000.0001) >    levels(1,8)  = 1.,
(PID.TID 0000.0001) >    filename(8)  = 'SST',
(PID.TID 0000.0001) >   frequency(9)  = -3600.,
(PID.TID 0000.0001) >    fields(1,9)  = 'UVELMASS',
(PID.TID 0000.0001) >    levels(1,9)  = 1.,
(PID.TID 0000.0001) >    filename(9)  = 'UVEL1',
(PID.TID 0000.0001) >   frequency(10) = -3600.,
(PID.TID 0000.0001) >    fields(1,10) = 'VVELMASS',
(PID.TID 0000.0001) >    levels(1,10) = 1.,
(PID.TID 0000.0001) >    filename(10) = 'VVEL1',
(PID.TID 0000.0001) >   frequency(11) = -3600.,
(PID.TID 0000.0001) >    fields(1,11) = 'atmPload',
(PID.TID 0000.0001) >    filename(11) = 'atmPload',
(PID.TID 0000.0001) > /
(PID.TID 0000.0001) >
(PID.TID 0000.0001) > &DIAG_STATIS_PARMS
(PID.TID 0000.0001) > /
(PID.TID 0000.0001) 
(PID.TID 0000.0001) S/R DIAGNOSTICS_READPARMS, read namelist "diagnostics_list": start
(PID.TID 0000.0001) S/R DIAGNOSTICS_READPARMS, read namelist "diagnostics_list": OK
(PID.TID 0000.0001) S/R DIAGNOSTICS_READPARMS, read namelist "DIAG_STATIS_PARMS": start
(PID.TID 0000.0001) S/R DIAGNOSTICS_READPARMS, read namelist "DIAG_STATIS_PARMS": OK
(PID.TID 0000.0001)  DIAGNOSTICS_READPARMS: global parameter summary:
(PID.TID 0000.0001)  dumpAtLast = /* always write time-ave diags at the end */
(PID.TID 0000.0001)                   F
(PID.TID 0000.0001)     ;
(PID.TID 0000.0001)  diag_mnc =   /* write NetCDF output files */
(PID.TID 0000.0001)                   F
(PID.TID 0000.0001)     ;
(PID.TID 0000.0001)  useMissingValue = /* put MissingValue where mask = 0 */
(PID.TID 0000.0001)                   F
(PID.TID 0000.0001)     ;
(PID.TID 0000.0001)  diagCG_maxIters = /* max number of iters in diag_cg2d */
(PID.TID 0000.0001)                     150
(PID.TID 0000.0001)     ;
(PID.TID 0000.0001)  diagCG_resTarget = /* residual target for diag_cg2d */
(PID.TID 0000.0001)                 1.000000000000000E-07
(PID.TID 0000.0001)     ;
(PID.TID 0000.0001)  diagCG_pcOffDFac = /* preconditioner off-diagonal factor */
(PID.TID 0000.0001)                 9.611687812379854E-01
(PID.TID 0000.0001)     ;
(PID.TID 0000.0001) -----------------------------------------------------
(PID.TID 0000.0001)  DIAGNOSTICS_READPARMS: active diagnostics summary:
(PID.TID 0000.0001) -----------------------------------------------------
(PID.TID 0000.0001) Creating Output Stream: oceTAUX
(PID.TID 0000.0001) Output Frequency:      -3600.000000 ; Phase:        1800.000000
(PID.TID 0000.0001)  Averaging Freq.:          0.000000 , Phase:           0.000000 , Cycle:   1
(PID.TID 0000.0001)  missing value: -9.990000000000E+02
(PID.TID 0000.0001)  Levels:    will be set later
(PID.TID 0000.0001)  Fields:    oceTAUX
(PID.TID 0000.0001) Creating Output Stream: oceTAUY
(PID.TID 0000.0001) Output Frequency:      -3600.000000 ; Phase:        1800.000000
(PID.TID 0000.0001)  Averaging Freq.:          0.000000 , Phase:           0.000000 , Cycle:   1
(PID.TID 0000.0001)  missing value: -9.990000000000E+02
(PID.TID 0000.0001)  Levels:    will be set later
(PID.TID 0000.0001)  Fields:    oceTAUY
(PID.TID 0000.0001) Creating Output Stream: oceFWflx
(PID.TID 0000.0001) Output Frequency:      -3600.000000 ; Phase:        1800.000000
(PID.TID 0000.0001)  Averaging Freq.:          0.000000 , Phase:           0.000000 , Cycle:   1
(PID.TID 0000.0001)  missing value: -9.990000000000E+02
(PID.TID 0000.0001)  Levels:    will be set later
(PID.TID 0000.0001)  Fields:    oceFWflx
(PID.TID 0000.0001) Creating Output Stream: oceSflux
(PID.TID 0000.0001) Output Frequency:      -3600.000000 ; Phase:        1800.000000
(PID.TID 0000.0001)  Averaging Freq.:          0.000000 , Phase:           0.000000 , Cycle:   1
(PID.TID 0000.0001)  missing value: -9.990000000000E+02
(PID.TID 0000.0001)  Levels:    will be set later
(PID.TID 0000.0001)  Fields:    oceSflux
(PID.TID 0000.0001) Creating Output Stream: oceQnet
(PID.TID 0000.0001) Output Frequency:      -3600.000000 ; Phase:        1800.000000
(PID.TID 0000.0001)  Averaging Freq.:          0.000000 , Phase:           0.000000 , Cycle:   1
(PID.TID 0000.0001)  missing value: -9.990000000000E+02
(PID.TID 0000.0001)  Levels:    will be set later
(PID.TID 0000.0001)  Fields:    oceQnet
(PID.TID 0000.0001) Creating Output Stream: oceQsw
(PID.TID 0000.0001) Output Frequency:      -3600.000000 ; Phase:        1800.000000
(PID.TID 0000.0001)  Averaging Freq.:          0.000000 , Phase:           0.000000 , Cycle:   1
(PID.TID 0000.0001)  missing value: -9.990000000000E+02
(PID.TID 0000.0001)  Levels:    will be set later
(PID.TID 0000.0001)  Fields:    oceQsw
(PID.TID 0000.0001) Creating Output Stream: SSS
(PID.TID 0000.0001) Output Frequency:      -3600.000000 ; Phase:        1800.000000
(PID.TID 0000.0001)  Averaging Freq.:          0.000000 , Phase:           0.000000 , Cycle:   1
(PID.TID 0000.0001)  missing value: -9.990000000000E+02
(PID.TID 0000.0001)  Levels:       1.
(PID.TID 0000.0001)  Fields:    SALT
(PID.TID 0000.0001) Creating Output Stream: SST
(PID.TID 0000.0001) Output Frequency:      -3600.000000 ; Phase:        1800.000000
(PID.TID 0000.0001)  Averaging Freq.:          0.000000 , Phase:           0.000000 , Cycle:   1
(PID.TID 0000.0001)  missing value: -9.990000000000E+02
(PID.TID 0000.0001)  Levels:       1.
(PID.TID 0000.0001)  Fields:    THETA
(PID.TID 0000.0001) Creating Output Stream: UVEL1
(PID.TID 0000.0001) Output Frequency:      -3600.000000 ; Phase:        1800.000000
(PID.TID 0000.0001)  Averaging Freq.:          0.000000 , Phase:           0.000000 , Cycle:   1
(PID.TID 0000.0001)  missing value: -9.990000000000E+02
(PID.TID 0000.0001)  Levels:       1.
(PID.TID 0000.0001)  Fields:    UVELMASS
(PID.TID 0000.0001) Creating Output Stream: VVEL1
(PID.TID 0000.0001) Output Frequency:      -3600.000000 ; Phase:        1800.000000
(PID.TID 0000.0001)  Averaging Freq.:          0.000000 , Phase:           0.000000 , Cycle:   1
(PID.TID 0000.0001)  missing value: -9.990000000000E+02
(PID.TID 0000.0001)  Levels:       1.
(PID.TID 0000.0001)  Fields:    VVELMASS
(PID.TID 0000.0001) Creating Output Stream: atmPload
(PID.TID 0000.0001) Output Frequency:      -3600.000000 ; Phase:        1800.000000
(PID.TID 0000.0001)  Averaging Freq.:          0.000000 , Phase:           0.000000 , Cycle:   1
(PID.TID 0000.0001)  missing value: -9.990000000000E+02
(PID.TID 0000.0001)  Levels:    will be set later
(PID.TID 0000.0001)  Fields:    atmPload
(PID.TID 0000.0001) -----------------------------------------------------
(PID.TID 0000.0001)  DIAGNOSTICS_READPARMS: statistics diags. summary:
(PID.TID 0000.0001) -----------------------------------------------------
(PID.TID 0000.0001) 
(PID.TID 0000.0001) DEBUG_MSG: CALLING S/R SET_PARMS
(PID.TID 0000.0001) SET_PARMS: done
(PID.TID 0000.0001) DEBUG_MSG: CALLING S/R INI_MODEL_IO
(PID.TID 0000.0001) DEBUG_MSG: CALLING S/R INI_GRID
(PID.TID 0000.0001) Enter INI_VERTICAL_GRID: setInterFDr=    T ; setCenterDr=    F
(PID.TID 0000.0001) tile:   1 ; Read from file grid_cs32.face001.bin
(PID.TID 0000.0001)   => xC yC dxF dyF rA xG yG dxV dyU rAz dxC dyC rAw rAs dxG dyG AngleCS AngleSN
(PID.TID 0000.0001) // =======================================================
(PID.TID 0000.0001) // Field Current xC       at iteration          0
(PID.TID 0000.0001) // CMIN =         -5.451338143305920E+01
(PID.TID 0000.0001) // CMAX =          5.451338143305920E+01
(PID.TID 0000.0001) // CINT =          4.038028254300682E+00
(PID.TID 0000.0001) // SYMBOLS (CMIN->CMAX): -abcdefghijklmnopqrstuvwxyz+
(PID.TID 0000.0001) //                  0.0: .
(PID.TID 0000.0001) // RANGE I (Lo:Hi:Step):(    -3:    36:     1)
(PID.TID 0000.0001) // RANGE J (Lo:Hi:Step):(    36:    -3:    -1)
(PID.TID 0000.0001) // RANGE K (Lo:Hi:Step):(   1:   1:   1)
(PID.TID 0000.0001) // =======================================================
(PID.TID 0000.0001) K =   1
(PID.TID 0000.0001) //                I=6       I=16      I=26      I=36
(PID.TID 0000.0001) // |--J--|321012345|789012345|789012345|789012345|
(PID.TID 0000.0001) //     36 bccdabbbccdefgghjklmnopqsttuvwxxyyyzwxxy
(PID.TID 0000.0001) //     35 bbccbbbccdeefghijklmnopqrstuvvwxxyyyxxyy
(PID.TID 0000.0001) //     34 bbbcbbccddeffghijklmnopqrstuuvwwxxyyxyyy
(PID.TID 0000.0001) //     33 abbbbccddeefghhijklmnopqrsstuvvwwxxyyyyz
(PID.TID 0000.0001) //     32 aabbcccddeffghiijklmnopqrrstuuvwwxxxyyzz
(PID.TID 0000.0001) //     31 aabbcccdeeffghijjklmnopqqrstuuvvwxxxyyzz
(PID.TID 0000.0001) //     30 aabbccddeefgghijkklmnoppqrsttuvvwwxxyyzz
(PID.TID 0000.0001) //     29 -abbccddeefghhijkklmnoppqrsstuvvwwxxyyz+
(PID.TID 0000.0001) //     28 -abbccddeffghhijkklmnoppqrsstuuvwwxxyyz+
(PID.TID 0000.0001) //     27 -aabccddeffghhijkllmnoopqrsstuuvwwxxyzz+
(PID.TID 0000.0001) //     26 -aabccdeeffghiijkllmnoopqrrstuuvvwxxyzz+
(PID.TID 0000.0001) //     25 -aabccdeefgghiijkllmnoopqrrsttuvvwxxyzz+
(PID.TID 0000.0001) //     24 -aabccdeefgghiijkllmnoopqrrsttuvvwxxyzz+
(PID.TID 0000.0001) //     23 -aabccdeefgghiijkllmnoopqrrsttuvvwxxyzz+
(PID.TID 0000.0001) //     22 -aabccdeefgghiijkllmnoopqrrsttuvvwxxyzz+
(PID.TID 0000.0001) //     21 -aabccdeefgghijjkllmnoopqqrsttuvvwxxyzz+
(PID.TID 0000.0001) //     20 -aabccdeefgghijjkllmnoopqqrsttuvvwxxyzz+
(PID.TID 0000.0001) //     19 -aabccdeefgghijjkllmnoopqqrsttuvvwxxyzz+
(PID.TID 0000.0001) //     18 -aabccdeefgghijjkllmnoopqqrsttuvvwxxyzz+
(PID.TID 0000.0001) //     17 -aabccdeefgghijjkllmnoopqqrsttuvvwxxyzz+
(PID.TID 0000.0001) //     16 -aabccdeefgghijjkllmnoopqqrsttuvvwxxyzz+
(PID.TID 0000.0001) //     15 -aabccdeefgghijjkllmnoopqqrsttuvvwxxyzz+
(PID.TID 0000.0001) //     14 -aabccdeefgghijjkllmnoopqqrsttuvvwxxyzz+
(PID.TID 0000.0001) //     13 -aabccdeefgghijjkllmnoopqqrsttuvvwxxyzz+
(PID.TID 0000.0001) //     12 -aabccdeefgghijjkllmnoopqqrsttuvvwxxyzz+
(PID.TID 0000.0001) //     11 -aabccdeefgghiijkllmnoopqrrsttuvvwxxyzz+
(PID.TID 0000.0001) //     10 -aabccdeefgghiijkllmnoopqrrsttuvvwxxyzz+
(PID.TID 0000.0001) //      9 -aabccdeefgghiijkllmnoopqrrsttuvvwxxyzz+
(PID.TID 0000.0001) //      8 -aabccdeefgghiijkllmnoopqrrsttuvvwxxyzz+
(PID.TID 0000.0001) //      7 -aabccdeeffghiijkllmnoopqrrstuuvvwxxyzz+
(PID.TID 0000.0001) //      6 -aabccddeffghhijkllmnoopqrsstuuvwwxxyzz+
(PID.TID 0000.0001) //      5 -abbccddeffghhijkklmnoppqrsstuuvwwxxyyz+
(PID.TID 0000.0001) //      4 -abbccddeefghhijkklmnoppqrsstuvvwwxxyyz+
(PID.TID 0000.0001) //      3 aabbccddeefgghijkklmnoppqrsttuvvwwxxyyzz
(PID.TID 0000.0001) //      2 aabbcccdeeffghijjklmnopqqrstuuvvwxxxyyzz
(PID.TID 0000.0001) //      1 aabbcccddeffghiijklmnopqrrstuuvwwxxxyyzz
(PID.TID 0000.0001) //      0 abbbbccddeefghhijklmnopqrsstuvvwwxxyyyyz
(PID.TID 0000.0001) //     -1 bbbcbbccddeffghijklmnopqrstuuvwwxxyyxyyy
(PID.TID 0000.0001) //     -2 bbccbbbccdeefghijklmnopqrstuvvwxxyyyxxyy
(PID.TID 0000.0001) //     -3 bccdabbbccdefgghjklmnopqsttuvwxxyyyzwxxy
(PID.TID 0000.0001) // =======================================================
(PID.TID 0000.0001) // END OF FIELD                                          =
(PID.TID 0000.0001) // =======================================================
(PID.TID 0000.0001) 
(PID.TID 0000.0001) // =======================================================
(PID.TID 0000.0001) // Field Current yC       at iteration          0
(PID.TID 0000.0001) // CMIN =         -5.449051806197881E+01
(PID.TID 0000.0001) // CMAX =          5.449051806197881E+01
(PID.TID 0000.0001) // CINT =          4.036334671257690E+00
(PID.TID 0000.0001) // SYMBOLS (CMIN->CMAX): -abcdefghijklmnopqrstuvwxyz+
(PID.TID 0000.0001) //                  0.0: .
(PID.TID 0000.0001) // RANGE I (Lo:Hi:Step):(    -3:    36:     1)
(PID.TID 0000.0001) // RANGE J (Lo:Hi:Step):(    36:    -3:    -1)
(PID.TID 0000.0001) // RANGE K (Lo:Hi:Step):(   1:   1:   1)
(PID.TID 0000.0001) // =======================================================
(PID.TID 0000.0001) K =   1
(PID.TID 0000.0001) //                I=6       I=16      I=26      I=36
(PID.TID 0000.0001) // |--J--|321012345|789012345|789012345|789012345|
(PID.TID 0000.0001) //     36 xxwwwwxxxyyyzzz++++++++++zzzyyyxxxwwwwxx
(PID.TID 0000.0001) //     35 xwwwwwwxxxyyyyzzzzzzzzzzzzyyyyxxxwwwwwwx
(PID.TID 0000.0001) //     34 wwwwwwwwxxxxyyyyyzzzzzzyyyyyxxxxwwwwwwww
(PID.TID 0000.0001) //     33 wwwvvwwwwwxxxxyyyyyyyyyyyyxxxxwwwwwvvwww
(PID.TID 0000.0001) //     32 wvvvvvvwwwwwxxxxxxxxxxxxxxxxwwwwwvvvvvvw
(PID.TID 0000.0001) //     31 vvvvvvvvvvwwwwwwwxxxxxxwwwwwwwvvvvvvvvvv
(PID.TID 0000.0001) //     30 vvvuuvvvvvvvvwwwwwwwwwwwwwwvvvvvvvvuuvvv
(PID.TID 0000.0001) //     29 uuuuuuuuuuvvvvvvvvvvvvvvvvvvvvuuuuuuuuuu
(PID.TID 0000.0001) //     28 uuuuuuuuuuuuuuuuvvvvvvvvuuuuuuuuuuuuuuuu
(PID.TID 0000.0001) //     27 ttttttttttttuuuuuuuuuuuuuuuutttttttttttt
(PID.TID 0000.0001) //     26 tttttttttttttttttttttttttttttttttttttttt
(PID.TID 0000.0001) //     25 sssssssssssssssssttttttsssssssssssssssss
(PID.TID 0000.0001) //     24 rrrrrrrrrrssssssssssssssssssssrrrrrrrrrr
(PID.TID 0000.0001) //     23 rrrrrrrrrrrrrrrrrrrrrrrrrrrrrrrrrrrrrrrr
(PID.TID 0000.0001) //     22 qqqqqqqqqqqqqqqqqqqqqqqqqqqqqqqqqqqqqqqq
(PID.TID 0000.0001) //     21 qppppppqqqqqqqqqqqqqqqqqqqqqqqqqqppppppq
(PID.TID 0000.0001) //     20 pppppppppppppppppppppppppppppppppppppppp
(PID.TID 0000.0001) //     19 oooooooooooooooooooooooooooooooooooooooo
(PID.TID 0000.0001) //     18 oooooooooooooooooooooooooooooooooooooooo
(PID.TID 0000.0001) //     17 nnnnnnnnnnnnnnnnnnnnnnnnnnnnnnnnnnnnnnnn
(PID.TID 0000.0001) //     16 mmmmmmmmmmmmmmmmmmmmmmmmmmmmmmmmmmmmmmmm
(PID.TID 0000.0001) //     15 llllllllllllllllllllllllllllllllllllllll
(PID.TID 0000.0001) //     14 llllllllllllllllllllllllllllllllllllllll
(PID.TID 0000.0001) //     13 kkkkkkkkkkkkkkkkkkkkkkkkkkkkkkkkkkkkkkkk
(PID.TID 0000.0001) //     12 jkkkkkkjjjjjjjjjjjjjjjjjjjjjjjjjjkkkkkkj
(PID.TID 0000.0001) //     11 jjjjjjjjjjjjjjjjjjjjjjjjjjjjjjjjjjjjjjjj
(PID.TID 0000.0001) //     10 iiiiiiiiiiiiiiiiiiiiiiiiiiiiiiiiiiiiiiii
(PID.TID 0000.0001) //      9 iiiiiiiiiihhhhhhhhhhhhhhhhhhhhiiiiiiiiii
(PID.TID 0000.0001) //      8 hhhhhhhhhhhhhhhhhgggggghhhhhhhhhhhhhhhhh
(PID.TID 0000.0001) //      7 gggggggggggggggggggggggggggggggggggggggg
(PID.TID 0000.0001) //      6 ggggggggggggffffffffffffffffgggggggggggg
(PID.TID 0000.0001) //      5 ffffffffffffffffeeeeeeeeffffffffffffffff
(PID.TID 0000.0001) //      4 ffffffffffeeeeeeeeeeeeeeeeeeeeffffffffff
(PID.TID 0000.0001) //      3 eeeffeeeeeeeeddddddddddddddeeeeeeeeffeee
(PID.TID 0000.0001) //      2 eeeeeeeeeedddddddccccccdddddddeeeeeeeeee
(PID.TID 0000.0001) //      1 deeeeeedddddccccccccccccccccdddddeeeeeed
(PID.TID 0000.0001) //      0 dddeedddddccccbbbbbbbbbbbbccccdddddeeddd
(PID.TID 0000.0001) //     -1 ddddddddccccbbbbbaaaaaabbbbbccccdddddddd
(PID.TID 0000.0001) //     -2 cddddddcccbbbbaaaaaaaaaaaabbbbcccddddddc
(PID.TID 0000.0001) //     -3 ccddddcccbbbaaa----------aaabbbcccddddcc
(PID.TID 0000.0001) // =======================================================
(PID.TID 0000.0001) // END OF FIELD                                          =
(PID.TID 0000.0001) // =======================================================
(PID.TID 0000.0001) 
(PID.TID 0000.0001) // =======================================================
(PID.TID 0000.0001) // Field Current dxF      at iteration          0
(PID.TID 0000.0001) // CMIN =          1.202082051331828E+05
(PID.TID 0000.0001) // CMAX =          3.236994750082736E+05
(PID.TID 0000.0001) // CINT =          7.536713699077437E+03
(PID.TID 0000.0001) // SYMBOLS (CMIN->CMAX): -abcdefghijklmnopqrstuvwxyz+
(PID.TID 0000.0001) //                  0.0: .
(PID.TID 0000.0001) // RANGE I (Lo:Hi:Step):(    -3:    36:     1)
(PID.TID 0000.0001) // RANGE J (Lo:Hi:Step):(    36:    -3:    -1)
(PID.TID 0000.0001) // RANGE K (Lo:Hi:Step):(   1:   1:   1)
(PID.TID 0000.0001) // =======================================================
(PID.TID 0000.0001) K =   1
(PID.TID 0000.0001) //                I=6       I=16      I=26      I=36
(PID.TID 0000.0001) // |--J--|321012345|789012345|789012345|789012345|
(PID.TID 0000.0001) //     36 nmlkklmnpqrtuvvwxxxxxxxxwvvutrqpnmlkklmn
(PID.TID 0000.0001) //     35 mkjhhjkmoprstuvwwxxxxxxwwvutsrpomkjhhjkm
(PID.TID 0000.0001) //     34 ljgeegjlnpqstuvwwxxxxxxwwvutsqpnljgeegjl
(PID.TID 0000.0001) //     33 khe--ehkmoqstuvwwxxxxxxwwvutsqomkhe--ehk
(PID.TID 0000.0001) //     32 khe--ehkmoqstuvwwxxxxxxwwvutsqomkhe--ehk
(PID.TID 0000.0001) //     31 ljgeegjlnpqstuvwwxxxxxxwwvutsqpnljgeegjl
(PID.TID 0000.0001) //     30 mkjhhjkmoprstuvwwxxxxxxwwvutsrpomkjhhjkm
(PID.TID 0000.0001) //     29 nmlkklmnpqrtuvvwxxxxxxxxwvvutrqpnmlkklmn
(PID.TID 0000.0001) //     28 ponnnnopqrstuvwwxxxyyxxxwwvutsrqponnnnop
(PID.TID 0000.0001) //     27 qppooppqrstuvvwxxxyyyyxxxwvvutsrqppooppq
(PID.TID 0000.0001) //     26 rrqqqqrrstuuvwxxxyyyyyyxxxwvuutsrrqqqqrr
(PID.TID 0000.0001) //     25 tssssssttuuvwwxxyyyyyyyyxxwwvuuttsssssst
(PID.TID 0000.0001) //     24 uttttttuuvvwwxxyyyzzzzyyyxxwwvvuuttttttu
(PID.TID 0000.0001) //     23 vuuuuuuvvvwwxxyyyzzzzzzyyyxxwwvvvuuuuuuv
(PID.TID 0000.0001) //     22 vvvvvvvvwwxxxyyzzzzzzzzzzyyxxxwwvvvvvvvv
(PID.TID 0000.0001) //     21 wwwwwwwwwxxxyyzzzzzzzzzzzzyyxxxwwwwwwwww
(PID.TID 0000.0001) //     20 xwwwwwwxxxxyyyzzzz++++zzzzyyyxxxxwwwwwwx
(PID.TID 0000.0001) //     19 xxxxxxxxxxyyyzzzz++++++zzzzyyyxxxxxxxxxx
(PID.TID 0000.0001) //     18 xxxxxxxxxyyyzzzz++++++++zzzzyyyxxxxxxxxx
(PID.TID 0000.0001) //     17 xxxxxxxxyyyyzzzz++++++++zzzzyyyyxxxxxxxx
(PID.TID 0000.0001) //     16 xxxxxxxxyyyyzzzz++++++++zzzzyyyyxxxxxxxx
(PID.TID 0000.0001) //     15 xxxxxxxxxyyyzzzz++++++++zzzzyyyxxxxxxxxx
(PID.TID 0000.0001) //     14 xxxxxxxxxxyyyzzzz++++++zzzzyyyxxxxxxxxxx
(PID.TID 0000.0001) //     13 xwwwwwwxxxxyyyzzzz++++zzzzyyyxxxxwwwwwwx
(PID.TID 0000.0001) //     12 wwwwwwwwwxxxyyzzzzzzzzzzzzyyxxxwwwwwwwww
(PID.TID 0000.0001) //     11 vvvvvvvvwwxxxyyzzzzzzzzzzyyxxxwwvvvvvvvv
(PID.TID 0000.0001) //     10 vuuuuuuvvvwwxxyyyzzzzzzyyyxxwwvvvuuuuuuv
(PID.TID 0000.0001) //      9 uttttttuuvvwwxxyyyzzzzyyyxxwwvvuuttttttu
(PID.TID 0000.0001) //      8 tssssssttuuvwwxxyyyyyyyyxxwwvuuttsssssst
(PID.TID 0000.0001) //      7 rrqqqqrrstuuvwxxxyyyyyyxxxwvuutsrrqqqqrr
(PID.TID 0000.0001) //      6 qppooppqrstuvvwxxxyyyyxxxwvvutsrqppooppq
(PID.TID 0000.0001) //      5 ponnnnopqrstuvwwxxxyyxxxwwvutsrqponnnnop
(PID.TID 0000.0001) //      4 nmlkklmnpqrtuvvwxxxxxxxxwvvutrqpnmlkklmn
(PID.TID 0000.0001) //      3 mkjhhjkmoprstuvwwxxxxxxwwvutsrpomkjhhjkm
(PID.TID 0000.0001) //      2 ljgeegjlnpqstuvwwxxxxxxwwvutsqpnljgeegjl
(PID.TID 0000.0001) //      1 khe--ehkmoqstuvwwxxxxxxwwvutsqomkhe--ehk
(PID.TID 0000.0001) //      0 khe--ehkmoqstuvwwxxxxxxwwvutsqomkhe--ehk
(PID.TID 0000.0001) //     -1 ljgeegjlnpqstuvwwxxxxxxwwvutsqpnljgeegjl
(PID.TID 0000.0001) //     -2 mkjhhjkmoprstuvwwxxxxxxwwvutsrpomkjhhjkm
(PID.TID 0000.0001) //     -3 nmlkklmnpqrtuvvwxxxxxxxxwvvutrqpnmlkklmn
(PID.TID 0000.0001) // =======================================================
(PID.TID 0000.0001) // END OF FIELD                                          =
(PID.TID 0000.0001) // =======================================================
(PID.TID 0000.0001) 
(PID.TID 0000.0001) // =======================================================
(PID.TID 0000.0001) // Field Current dyF      at iteration          0
(PID.TID 0000.0001) // CMIN =          1.202082051331828E+05
(PID.TID 0000.0001) // CMAX =          3.236994750082736E+05
(PID.TID 0000.0001) // CINT =          7.536713699077437E+03
(PID.TID 0000.0001) // SYMBOLS (CMIN->CMAX): -abcdefghijklmnopqrstuvwxyz+
(PID.TID 0000.0001) //                  0.0: .
(PID.TID 0000.0001) // RANGE I (Lo:Hi:Step):(    -3:    36:     1)
(PID.TID 0000.0001) // RANGE J (Lo:Hi:Step):(    36:    -3:    -1)
(PID.TID 0000.0001) // RANGE K (Lo:Hi:Step):(   1:   1:   1)
(PID.TID 0000.0001) // =======================================================
(PID.TID 0000.0001) K =   1
(PID.TID 0000.0001) //                I=6       I=16      I=26      I=36
(PID.TID 0000.0001) // |--J--|321012345|789012345|789012345|789012345|
(PID.TID 0000.0001) //     36 nmlkklmnpqrtuvvwxxxxxxxxwvvutrqpnmlkklmn
(PID.TID 0000.0001) //     35 mkjhhjkmoprstuvwwxxxxxxwwvutsrpomkjhhjkm
(PID.TID 0000.0001) //     34 ljgeegjlnpqstuvwwxxxxxxwwvutsqpnljgeegjl
(PID.TID 0000.0001) //     33 khe--ehknoqstuvwwxxxxxxwwvutsqonkhe--ehk
(PID.TID 0000.0001) //     32 khe--ehknoqstuvwwxxxxxxwwvutsqonkhe--ehk
(PID.TID 0000.0001) //     31 ljgeegjlnpqstuvwwxxxxxxwwvutsqpnljgeegjl
(PID.TID 0000.0001) //     30 mkjhhjkmoprstuvwwxxxxxxwwvutsrpomkjhhjkm
(PID.TID 0000.0001) //     29 nmlkklmnpqrtuvvwxxxxxxxxwvvutrqpnmlkklmn
(PID.TID 0000.0001) //     28 ponmmnopqrstuvwwxxxyyxxxwwvutsrqponmmnop
(PID.TID 0000.0001) //     27 qppooppqrstuvvwxxxyyyyxxxwvvutsrqppooppq
(PID.TID 0000.0001) //     26 rrqqqqrrstuuvwxxxyyyyyyxxxwvuutsrrqqqqrr
(PID.TID 0000.0001) //     25 tssssssttuuvwwxxyyyyyyyyxxwwvuuttsssssst
(PID.TID 0000.0001) //     24 uttttttuuvvwwxxyyyzzzzyyyxxwwvvuuttttttu
(PID.TID 0000.0001) //     23 vuuuuuuvvvwwxxyyyzzzzzzyyyxxwwvvvuuuuuuv
(PID.TID 0000.0001) //     22 vvvvvvvvwwxxxyyzzzzzzzzzzyyxxxwwvvvvvvvv
(PID.TID 0000.0001) //     21 wwwwwwwwwxxxyyzzzzzzzzzzzzyyxxxwwwwwwwww
(PID.TID 0000.0001) //     20 xwwwwwwxxxxyyyzzzz++++zzzzyyyxxxxwwwwwwx
(PID.TID 0000.0001) //     19 xxxxxxxxxxyyyzzzz++++++zzzzyyyxxxxxxxxxx
(PID.TID 0000.0001) //     18 xxxxxxxxxyyyzzzz++++++++zzzzyyyxxxxxxxxx
(PID.TID 0000.0001) //     17 xxxxxxxxyyyyzzzz++++++++zzzzyyyyxxxxxxxx
(PID.TID 0000.0001) //     16 xxxxxxxxyyyyzzzz++++++++zzzzyyyyxxxxxxxx
(PID.TID 0000.0001) //     15 xxxxxxxxxyyyzzzz++++++++zzzzyyyxxxxxxxxx
(PID.TID 0000.0001) //     14 xxxxxxxxxxyyyzzzz++++++zzzzyyyxxxxxxxxxx
(PID.TID 0000.0001) //     13 xwwwwwwxxxxyyyzzzz++++zzzzyyyxxxxwwwwwwx
(PID.TID 0000.0001) //     12 wwwwwwwwwxxxyyzzzzzzzzzzzzyyxxxwwwwwwwww
(PID.TID 0000.0001) //     11 vvvvvvvvwwxxxyyzzzzzzzzzzyyxxxwwvvvvvvvv
(PID.TID 0000.0001) //     10 vuuuuuuvvvwwxxyyyzzzzzzyyyxxwwvvvuuuuuuv
(PID.TID 0000.0001) //      9 uttttttuuvvwwxxyyyzzzzyyyxxwwvvuuttttttu
(PID.TID 0000.0001) //      8 tssssssttuuvwwxxyyyyyyyyxxwwvuuttsssssst
(PID.TID 0000.0001) //      7 rrqqqqrrstuuvwxxxyyyyyyxxxwvuutsrrqqqqrr
(PID.TID 0000.0001) //      6 qppooppqrstuvvwxxxyyyyxxxwvvutsrqppooppq
(PID.TID 0000.0001) //      5 ponmmnopqrstuvwwxxxyyxxxwwvutsrqponmmnop
(PID.TID 0000.0001) //      4 nmlkklmnpqrtuvvwxxxxxxxxwvvutrqpnmlkklmn
(PID.TID 0000.0001) //      3 mkjhhjkmoprstuvwwxxxxxxwwvutsrpomkjhhjkm
(PID.TID 0000.0001) //      2 ljgeegjlnpqstuvwwxxxxxxwwvutsqpnljgeegjl
(PID.TID 0000.0001) //      1 khe--ehknoqstuvwwxxxxxxwwvutsqonkhe--ehk
(PID.TID 0000.0001) //      0 khe--ehknoqstuvwwxxxxxxwwvutsqonkhe--ehk
(PID.TID 0000.0001) //     -1 ljgeegjlnpqstuvwwxxxxxxwwvutsqpnljgeegjl
(PID.TID 0000.0001) //     -2 mkjhhjkmoprstuvwwxxxxxxwwvutsrpomkjhhjkm
(PID.TID 0000.0001) //     -3 nmlkklmnpqrtuvvwxxxxxxxxwvvutrqpnmlkklmn
(PID.TID 0000.0001) // =======================================================
(PID.TID 0000.0001) // END OF FIELD                                          =
(PID.TID 0000.0001) // =======================================================
(PID.TID 0000.0001) 
(PID.TID 0000.0001) // =======================================================
(PID.TID 0000.0001) // Field Current rA       at iteration          0
(PID.TID 0000.0001) // CMIN =          1.401900702255611E+10
(PID.TID 0000.0001) // CMAX =          1.047926024841940E+11
(PID.TID 0000.0001) // CINT =          3.361985017097700E+09
(PID.TID 0000.0001) // SYMBOLS (CMIN->CMAX): -abcdefghijklmnopqrstuvwxyz+
(PID.TID 0000.0001) //                  0.0: .
(PID.TID 0000.0001) // RANGE I (Lo:Hi:Step):(    -3:    36:     1)
(PID.TID 0000.0001) // RANGE J (Lo:Hi:Step):(    36:    -3:    -1)
(PID.TID 0000.0001) // RANGE K (Lo:Hi:Step):(   1:   1:   1)
(PID.TID 0000.0001) // =======================================================
(PID.TID 0000.0001) K =   1
(PID.TID 0000.0001) //                I=6       I=16      I=26      I=36
(PID.TID 0000.0001) // |--J--|321012345|789012345|789012345|789012345|
(PID.TID 0000.0001) //     36 kjihhijkmnpqrtuuvwwwwwwvuutrqpnmkjihhijk
(PID.TID 0000.0001) //     35 jhgffghjlmoqrstuvvwwwwvvutsrqomljhgffghj
(PID.TID 0000.0001) //     34 igeccegikmoprstuvvwwwwvvutsrpomkigeccegi
(PID.TID 0000.0001) //     33 hfc--cfhjlnpqstuvvwwwwvvutsqpnljhfc--cfh
(PID.TID 0000.0001) //     32 hfc--cfhjlnpqstuvvwwwwvvutsqpnljhfc--cfh
(PID.TID 0000.0001) //     31 igeccegikmoprstuvvwwwwvvutsrpomkigeccegi
(PID.TID 0000.0001) //     30 jhgffghjlmoqrstuvvwwwwvvutsrqomljhgffghj
(PID.TID 0000.0001) //     29 kjihhijkmnpqrtuuvwwwwwwvuutrqpnmkjihhijk
(PID.TID 0000.0001) //     28 mlkjjklmnoqrstuvwwwxxwwwvutsrqonmlkjjklm
(PID.TID 0000.0001) //     27 nmmllmmnoprstuvvwwxxxxwwvvutsrponmmllmmn
(PID.TID 0000.0001) //     26 poonnoopqrsttuvwwxxxxxxwwvuttsrqpoonnoop
(PID.TID 0000.0001) //     25 qqppppqqrsttuvwwxxyyyyxxwwvuttsrqqppppqq
(PID.TID 0000.0001) //     24 rrrqqrrrsttuvwwxxyyyyyyxxwwvuttsrrrqqrrr
(PID.TID 0000.0001) //     23 tssssssttuuvwwxxyyyzzyyyxxwwvuuttsssssst
(PID.TID 0000.0001) //     22 uttttttuuvvwwxxyyzzzzzzyyxxwwvvuuttttttu
(PID.TID 0000.0001) //     21 uuuuuuuuvvwwxxyyzzzzzzzzyyxxwwvvuuuuuuuu
(PID.TID 0000.0001) //     20 vvvvvvvvwwwxxyyzzzz++zzzzyyxxwwwvvvvvvvv
(PID.TID 0000.0001) //     19 wvvvvvvwwwxxyyzzz++++++zzzyyxxwwwvvvvvvw
(PID.TID 0000.0001) //     18 wwwwwwwwwxxyyyzzz++++++zzzyyyxxwwwwwwwww
(PID.TID 0000.0001) //     17 wwwwwwwwxxxyyzzz++++++++zzzyyxxxwwwwwwww
(PID.TID 0000.0001) //     16 wwwwwwwwxxxyyzzz++++++++zzzyyxxxwwwwwwww
(PID.TID 0000.0001) //     15 wwwwwwwwwxxyyyzzz++++++zzzyyyxxwwwwwwwww
(PID.TID 0000.0001) //     14 wvvvvvvwwwxxyyzzz++++++zzzyyxxwwwvvvvvvw
(PID.TID 0000.0001) //     13 vvvvvvvvwwwxxyyzzzz++zzzzyyxxwwwvvvvvvvv
(PID.TID 0000.0001) //     12 uuuuuuuuvvwwxxyyzzzzzzzzyyxxwwvvuuuuuuuu
(PID.TID 0000.0001) //     11 uttttttuuvvwwxxyyzzzzzzyyxxwwvvuuttttttu
(PID.TID 0000.0001) //     10 tssssssttuuvwwxxyyyzzyyyxxwwvuuttsssssst
(PID.TID 0000.0001) //      9 rrrqqrrrsttuvwwxxyyyyyyxxwwvuttsrrrqqrrr
(PID.TID 0000.0001) //      8 qqppppqqrsttuvwwxxyyyyxxwwvuttsrqqppppqq
(PID.TID 0000.0001) //      7 poonnoopqrsttuvwwxxxxxxwwvuttsrqpoonnoop
(PID.TID 0000.0001) //      6 nmmllmmnoprstuvvwwxxxxwwvvutsrponmmllmmn
(PID.TID 0000.0001) //      5 mlkjjklmnoqrstuvwwwxxwwwvutsrqonmlkjjklm
(PID.TID 0000.0001) //      4 kjihhijkmnpqrtuuvwwwwwwvuutrqpnmkjihhijk
(PID.TID 0000.0001) //      3 jhgffghjlmoqrstuvvwwwwvvutsrqomljhgffghj
(PID.TID 0000.0001) //      2 igeccegikmoprstuvvwwwwvvutsrpomkigeccegi
(PID.TID 0000.0001) //      1 hfc--cfhjlnpqstuvvwwwwvvutsqpnljhfc--cfh
(PID.TID 0000.0001) //      0 hfc--cfhjlnpqstuvvwwwwvvutsqpnljhfc--cfh
(PID.TID 0000.0001) //     -1 igeccegikmoprstuvvwwwwvvutsrpomkigeccegi
(PID.TID 0000.0001) //     -2 jhgffghjlmoqrstuvvwwwwvvutsrqomljhgffghj
(PID.TID 0000.0001) //     -3 kjihhijkmnpqrtuuvwwwwwwvuutrqpnmkjihhijk
(PID.TID 0000.0001) // =======================================================
(PID.TID 0000.0001) // END OF FIELD                                          =
(PID.TID 0000.0001) // =======================================================
(PID.TID 0000.0001) 
(PID.TID 0000.0001) // =======================================================
(PID.TID 0000.0001) // Field Current xG       at iteration          0
(PID.TID 0000.0001) // CMIN =         -5.588379761537041E+01
(PID.TID 0000.0001) // CMAX =          5.314943914702768E+01
(PID.TID 0000.0001) // CINT =          4.038268028236966E+00
(PID.TID 0000.0001) // SYMBOLS (CMIN->CMAX): -abcdefghijklmnopqrstuvwxyz+
(PID.TID 0000.0001) //                  0.0: .
(PID.TID 0000.0001) // RANGE I (Lo:Hi:Step):(    -3:    36:     1)
(PID.TID 0000.0001) // RANGE J (Lo:Hi:Step):(    36:    -3:    -1)
(PID.TID 0000.0001) // RANGE K (Lo:Hi:Step):(   1:   1:   1)
(PID.TID 0000.0001) // =======================================================
(PID.TID 0000.0001) K =   1
(PID.TID 0000.0001) //                I=6       I=16      I=26      I=36
(PID.TID 0000.0001) // |--J--|321012345|789012345|789012345|789012345|
(PID.TID 0000.0001) //     36 ccccbbbccddefghhiklm.opqrstuvwwxxyyzzxxy
(PID.TID 0000.0001) //     35 bbccbbccddeefghijklm.opqrstuuvwxxyyyzxyy
(PID.TID 0000.0001) //     34 bbbcbcccdeefgghijklm.opqrsttuvwwxxyyyyyy
(PID.TID 0000.0001) //     33 abbbcccddeefghhijklm.opqrrstuvvwwxxyyyzz
(PID.TID 0000.0001) //     32 aabbcccdeeffghiijklm.opqqrstuuvwwxxyyyzz
(PID.TID 0000.0001) //     31 aabbccddeefgghijjklm.oppqrsttuvvwxxyyyzz
(PID.TID 0000.0001) //     30 aabbccddeefgghijkklm.oppqrsstuvvwwxxyyz+
(PID.TID 0000.0001) //     29 -abbccddeffghhijkklm.oopqrsstuuvwwxxyzz+
(PID.TID 0000.0001) //     28 -abbccddeffghhijkklm.oopqrsstuuvwwxxyzz+
(PID.TID 0000.0001) //     27 -aabccdeeffghiijkllm.oopqrrstuuvwwxxyzz+
(PID.TID 0000.0001) //     26 -aabccdeefgghiijkllm.oopqrrsttuvvwxxyzz+
(PID.TID 0000.0001) //     25 -aabccdeefgghiijkllm.oopqrrsttuvvwxxyzz+
(PID.TID 0000.0001) //     24 -aabccdeefgghiijkllm.oopqrrsttuvvwxxyzz+
(PID.TID 0000.0001) //     23 -aabccdeefgghiijkllm.oopqrrsttuvvwxxyzz+
(PID.TID 0000.0001) //     22 -aabccdeefgghiijkllm.oopqqrsttuvvwxxyzz+
(PID.TID 0000.0001) //     21 -aabccdeefgghijjkllm.oopqqrsttuvvwxxyzz+
(PID.TID 0000.0001) //     20 -aabccdeefgghijjkllm.oopqqrsttuvvwxxyzz+
(PID.TID 0000.0001) //     19 -aabccdeefgghijjkllm.oopqqrsttuvvwxxyzz+
(PID.TID 0000.0001) //     18 -aabccdeefgghijjkllm.oopqqrsttuvvwxxyzz+
(PID.TID 0000.0001) //     17 -aabccdeefgghijjkllm.oopqqrsttuvvwxxyzz+
(PID.TID 0000.0001) //     16 -aabccdeefgghijjkllm.oopqqrsttuvvwxxyzz+
(PID.TID 0000.0001) //     15 -aabccdeefgghijjkllm.oopqqrsttuvvwxxyzz+
(PID.TID 0000.0001) //     14 -aabccdeefgghijjkllm.oopqqrsttuvvwxxyzz+
(PID.TID 0000.0001) //     13 -aabccdeefgghijjkllm.oopqqrsttuvvwxxyzz+
(PID.TID 0000.0001) //     12 -aabccdeefgghiijkllm.oopqqrsttuvvwxxyzz+
(PID.TID 0000.0001) //     11 -aabccdeefgghiijkllm.oopqrrsttuvvwxxyzz+
(PID.TID 0000.0001) //     10 -aabccdeefgghiijkllm.oopqrrsttuvvwxxyzz+
(PID.TID 0000.0001) //      9 -aabccdeefgghiijkllm.oopqrrsttuvvwxxyzz+
(PID.TID 0000.0001) //      8 -aabccdeefgghiijkllm.oopqrrsttuvvwxxyzz+
(PID.TID 0000.0001) //      7 -aabccdeeffghiijkllm.oopqrrstuuvwwxxyzz+
(PID.TID 0000.0001) //      6 -abbccddeffghhijkklm.oopqrsstuuvwwxxyzz+
(PID.TID 0000.0001) //      5 -abbccddeffghhijkklm.oopqrsstuuvwwxxyzz+
(PID.TID 0000.0001) //      4 aabbccddeefgghijkklm.oppqrsstuvvwwxxyyz+
(PID.TID 0000.0001) //      3 aabbccddeefgghijjklm.oppqrsttuvvwxxyyyzz
(PID.TID 0000.0001) //      2 aabbcccdeeffghiijklm.opqqrstuuvwwxxyyyzz
(PID.TID 0000.0001) //      1 abbbcccddeefghhijklm.opqrrstuvvwwxxyyyzz
(PID.TID 0000.0001) //      0 abbcbcccdeefgghijklm.opqrsttuvwwxxyyyyzz
(PID.TID 0000.0001) //     -1 bbccbbccddeefghijklm.opqrstuuvwxxyyyzyyz
(PID.TID 0000.0001) //     -2 bcccbbbccddefghhiklm.opqrstuvwwxxyyzzyyy
(PID.TID 0000.0001) //     -3 bcccaabbccdeefghijkm.opqstuuvwxxyyzzxxxy
(PID.TID 0000.0001) // =======================================================
(PID.TID 0000.0001) // END OF FIELD                                          =
(PID.TID 0000.0001) // =======================================================
(PID.TID 0000.0001) 
(PID.TID 0000.0001) // =======================================================
(PID.TID 0000.0001) // Field Current yG       at iteration          0
(PID.TID 0000.0001) // CMIN =         -5.588379761537041E+01
(PID.TID 0000.0001) // CMAX =          5.314943914702768E+01
(PID.TID 0000.0001) // CINT =          4.038268028236966E+00
(PID.TID 0000.0001) // SYMBOLS (CMIN->CMAX): -abcdefghijklmnopqrstuvwxyz+
(PID.TID 0000.0001) //                  0.0: .
(PID.TID 0000.0001) // RANGE I (Lo:Hi:Step):(    -3:    36:     1)
(PID.TID 0000.0001) // RANGE J (Lo:Hi:Step):(    36:    -3:    -1)
(PID.TID 0000.0001) // RANGE K (Lo:Hi:Step):(   1:   1:   1)
(PID.TID 0000.0001) // =======================================================
(PID.TID 0000.0001) K =   1
(PID.TID 0000.0001) //                I=6       I=16      I=26      I=36
(PID.TID 0000.0001) // |--J--|321012345|789012345|789012345|789012345|
(PID.TID 0000.0001) //     36 xxxwwwxxxyyyzzzz+++++++++zzzzyyyxxxwwwwx
(PID.TID 0000.0001) //     35 xxwwwwwxxxyyyyzzzzzzzzzzzzzyyyyxxxwwwwww
(PID.TID 0000.0001) //     34 wwwwwwwwxxxxyyyyyyzzzzzyyyyyyxxxxwwwwwww
(PID.TID 0000.0001) //     33 wwwwwwwwwwxxxxxyyyyyyyyyyyxxxxxwwwwwwwww
(PID.TID 0000.0001) //     32 wwvvvvvwwwwwxxxxxxxxxxxxxxxxxwwwwwvvvvvw
(PID.TID 0000.0001) //     31 vvvvvvvvvvwwwwwwwxxxxxxxwwwwwwwvvvvvvvvv
(PID.TID 0000.0001) //     30 vvvvvvvvvvvvvvwwwwwwwwwwwwwvvvvvvvvvvvvv
(PID.TID 0000.0001) //     29 uuuuuuuuuuvvvvvvvvvvvvvvvvvvvvvuuuuuuuuu
(PID.TID 0000.0001) //     28 uuuuuuuuuuuuuuuuuvvvvvvvuuuuuuuuuuuuuuuu
(PID.TID 0000.0001) //     27 ttttttttttttuuuuuuuuuuuuuuuuuttttttttttt
(PID.TID 0000.0001) //     26 tttttttttttttttttttttttttttttttttttttttt
(PID.TID 0000.0001) //     25 sssssssssssssssssstttttsssssssssssssssss
(PID.TID 0000.0001) //     24 rrrrrrrrrrsssssssssssssssssssssrrrrrrrrr
(PID.TID 0000.0001) //     23 rrrrrrrrrrrrrrrrrrrrrrrrrrrrrrrrrrrrrrrr
(PID.TID 0000.0001) //     22 qqqqqqqqqqqqqqqqqqqqqqqqqqqqqqqqqqqqqqqq
(PID.TID 0000.0001) //     21 qqqpppqqqqqqqqqqqqqqqqqqqqqqqqqqqqqpppqq
(PID.TID 0000.0001) //     20 pppppppppppppppppppppppppppppppppppppppp
(PID.TID 0000.0001) //     19 oooooooooooooooooooooooooooooooooooooooo
(PID.TID 0000.0001) //     18 oooooooooooooooooooooooooooooooooooooooo
(PID.TID 0000.0001) //     17 ........................................
(PID.TID 0000.0001) //     16 mmmmmmmmmmmmmmmmmmmmmmmmmmmmmmmmmmmmmmmm
(PID.TID 0000.0001) //     15 llllllllllllllllllllllllllllllllllllllll
(PID.TID 0000.0001) //     14 llllllllllllllllllllllllllllllllllllllll
(PID.TID 0000.0001) //     13 kkkkkkkkkkkkkkkkkkkkkkkkkkkkkkkkkkkkkkkk
(PID.TID 0000.0001) //     12 jkkkkkkkjjjjjjjjjjjjjjjjjjjjjjjjjkkkkkkk
(PID.TID 0000.0001) //     11 jjjjjjjjjjjjjjjjjjjjjjjjjjjjjjjjjjjjjjjj
(PID.TID 0000.0001) //     10 iiiiiiiiiiiiiiiiiiiiiiiiiiiiiiiiiiiiiiii
(PID.TID 0000.0001) //      9 iiiiiiiiiiihhhhhhhhhhhhhhhhhhhiiiiiiiiii
(PID.TID 0000.0001) //      8 hhhhhhhhhhhhhhhhhggggggghhhhhhhhhhhhhhhh
(PID.TID 0000.0001) //      7 gghhhhhggggggggggggggggggggggggggghhhhhg
(PID.TID 0000.0001) //      6 gggggggggggggfffffffffffffffgggggggggggg
(PID.TID 0000.0001) //      5 fffgggfffffffffffeeeeeeefffffffffffgggff
(PID.TID 0000.0001) //      4 fffffffffffeeeeeeeeeeeeeeeeeeeffffffffff
(PID.TID 0000.0001) //      3 eefffffeeeeeeedddddddddddddeeeeeeefffffe
(PID.TID 0000.0001) //      2 eeeeeeeeeeeddddddcccccccddddddeeeeeeeeee
(PID.TID 0000.0001) //      1 deeeeeeedddddcccccccccccccccdddddeeeeeee
(PID.TID 0000.0001) //      0 ddeeeeeddddccccbbbbbbbbbbbccccddddeeeedd
(PID.TID 0000.0001) //     -1 dddeeedddccccbbbbbaaaaabbbbbccccdddeeddd
(PID.TID 0000.0001) //     -2 cdddedddcccbbbaaaaaaaaaaaaabbbcccdddeddc
(PID.TID 0000.0001) //     -3 cddddddccbbbaaaa---------aaaabbbccddddcc
(PID.TID 0000.0001) // =======================================================
(PID.TID 0000.0001) // END OF FIELD                                          =
(PID.TID 0000.0001) // =======================================================
(PID.TID 0000.0001) 
(PID.TID 0000.0001) // =======================================================
(PID.TID 0000.0001) // Field Current dxV      at iteration          0
(PID.TID 0000.0001) // CMIN =          8.015229982413632E+04
(PID.TID 0000.0001) // CMAX =          3.238041816275029E+05
(PID.TID 0000.0001) // CINT =          9.024143770495059E+03
(PID.TID 0000.0001) // SYMBOLS (CMIN->CMAX): -abcdefghijklmnopqrstuvwxyz+
(PID.TID 0000.0001) //                  0.0: .
(PID.TID 0000.0001) // RANGE I (Lo:Hi:Step):(    -3:    36:     1)
(PID.TID 0000.0001) // RANGE J (Lo:Hi:Step):(    36:    -3:    -1)
(PID.TID 0000.0001) // RANGE K (Lo:Hi:Step):(   1:   1:   1)
(PID.TID 0000.0001) // =======================================================
(PID.TID 0000.0001) K =   1
(PID.TID 0000.0001) //                I=6       I=16      I=26      I=36
(PID.TID 0000.0001) // |--J--|321012345|789012345|789012345|789012345|
(PID.TID 0000.0001) //     36 onmmmmnoqrstuvwwxxxyyyxxxwwvutsrqonmmmmn
(PID.TID 0000.0001) //     35 nlkjjklnpqrtuvvwxxxyyyxxxwvvutrqpnlkjjkl
(PID.TID 0000.0001) //     34 mkhffhkmoqrsuuvwxxxxyxxxxwvuusrqomkhffhk
(PID.TID 0000.0001) //     33 omjf-fjmoprstuvwxxxxyxxxxwvutsrpomjf-fjm
(PID.TID 0000.0001) //     32 omkhfhkmoqrsuuvwxxxxyxxxxwvuusrqomkhfhkm
(PID.TID 0000.0001) //     31 pnlkjklnpqrtuvvwxxxyyyxxxwvvutrqpnlkjkln
(PID.TID 0000.0001) //     30 qonmmmnoqrstuvwwxxxyyyxxxwwvutsrqonmmmno
(PID.TID 0000.0001) //     29 rqpooopqrstuuvwxxxyyyyyxxxwvuutsrqpooopq
(PID.TID 0000.0001) //     28 srqqqqqrsstuvwwxxyyyyyyyxxwwvutssrqqqqqr
(PID.TID 0000.0001) //     27 tsrrrrrsttuvvwxxyyyyyyyyyxxwvvuttsrrrrrs
(PID.TID 0000.0001) //     26 uttsssttuuvvwxxxyyyyzyyyyxxxwvvuuttssstt
(PID.TID 0000.0001) //     25 uuuutuuuuvvwwxxyyyzzzzzyyyxxwwvvuuuutuuu
(PID.TID 0000.0001) //     24 vvvuuuvvvwwxxxyyyzzzzzzzyyyxxxwwvvvuuuvv
(PID.TID 0000.0001) //     23 wwvvvvvwwwxxxyyyzzzzzzzzzyyyxxxwwwvvvvvw
(PID.TID 0000.0001) //     22 xwwwwwwwxxxxyyyzzzzzzzzzzzyyyxxxxwwwwwww
(PID.TID 0000.0001) //     21 xxxxxxxxxxyyyyzzzz+++++zzzzyyyyxxxxxxxxx
(PID.TID 0000.0001) //     20 xxxxxxxxxyyyyzzzz+++++++zzzzyyyyxxxxxxxx
(PID.TID 0000.0001) //     19 yxxxxxxxyyyyzzzz+++++++++zzzzyyyyxxxxxxx
(PID.TID 0000.0001) //     18 yyyxxxyyyyyyzzzz+++++++++zzzzyyyyyyxxxyy
(PID.TID 0000.0001) //     17 yyyyyyyyyyyzzzzz+++++++++zzzzzyyyyyyyyyy
(PID.TID 0000.0001) //     16 yyyxxxyyyyyyzzzz+++++++++zzzzyyyyyyxxxyy
(PID.TID 0000.0001) //     15 yxxxxxxxyyyyzzzz+++++++++zzzzyyyyxxxxxxx
(PID.TID 0000.0001) //     14 xxxxxxxxxyyyyzzzz+++++++zzzzyyyyxxxxxxxx
(PID.TID 0000.0001) //     13 xxxxxxxxxxyyyyzzzz+++++zzzzyyyyxxxxxxxxx
(PID.TID 0000.0001) //     12 xwwwwwwwxxxxyyyzzzzzzzzzzzyyyxxxxwwwwwww
(PID.TID 0000.0001) //     11 wwvvvvvwwwxxxyyyzzzzzzzzzyyyxxxwwwvvvvvw
(PID.TID 0000.0001) //     10 vvvuuuvvvwwxxxyyyzzzzzzzyyyxxxwwvvvuuuvv
(PID.TID 0000.0001) //      9 uuuutuuuuvvwwxxyyyzzzzzyyyxxwwvvuuuutuuu
(PID.TID 0000.0001) //      8 uttsssttuuvvwxxxyyyyzyyyyxxxwvvuuttssstt
(PID.TID 0000.0001) //      7 tsrrrrrsttuvvwxxyyyyyyyyyxxwvvuttsrrrrrs
(PID.TID 0000.0001) //      6 srqqqqqrsstuvwwxxyyyyyyyxxwwvutssrqqqqqr
(PID.TID 0000.0001) //      5 rqpooopqrstuuvwxxxyyyyyxxxwvuutsrqpooopq
(PID.TID 0000.0001) //      4 qonmmmnoqrstuvwwxxxyyyxxxwwvutsrqonmmmno
(PID.TID 0000.0001) //      3 pnlkjklnpqrtuvvwxxxyyyxxxwvvutrqpnlkjkln
(PID.TID 0000.0001) //      2 omkhfhkmoqrsuuvwxxxxyxxxxwvuusrqomkhfhkm
(PID.TID 0000.0001) //      1 omjf-fjmoprstuvwxxxxyxxxxwvutsrpomjf-fjm
(PID.TID 0000.0001) //      0 omkhfhkmoqrsuuvwxxxxyxxxxwvuusrqomkhfkmo
(PID.TID 0000.0001) //     -1 pnlkjklnpqrtuvvwxxxyyyxxxwvvutrqpnlkjlnp
(PID.TID 0000.0001) //     -2 qonmmmnoqrstuvwwxxxyyyxxxwwvutsrqonmmnoq
(PID.TID 0000.0001) //     -3 qonmoopqrstuuvwxxxyyyyyxxxwvuutsrqpoopqr
(PID.TID 0000.0001) // =======================================================
(PID.TID 0000.0001) // END OF FIELD                                          =
(PID.TID 0000.0001) // =======================================================
(PID.TID 0000.0001) 
(PID.TID 0000.0001) // =======================================================
(PID.TID 0000.0001) // Field Current dyU      at iteration          0
(PID.TID 0000.0001) // CMIN =          8.015229982413632E+04
(PID.TID 0000.0001) // CMAX =          3.238041816275029E+05
(PID.TID 0000.0001) // CINT =          9.024143770495059E+03
(PID.TID 0000.0001) // SYMBOLS (CMIN->CMAX): -abcdefghijklmnopqrstuvwxyz+
(PID.TID 0000.0001) //                  0.0: .
(PID.TID 0000.0001) // RANGE I (Lo:Hi:Step):(    -3:    36:     1)
(PID.TID 0000.0001) // RANGE J (Lo:Hi:Step):(    36:    -3:    -1)
(PID.TID 0000.0001) // RANGE K (Lo:Hi:Step):(   1:   1:   1)
(PID.TID 0000.0001) // =======================================================
(PID.TID 0000.0001) K =   1
(PID.TID 0000.0001) //                I=6       I=16      I=26      I=36
(PID.TID 0000.0001) // |--J--|321012345|789012345|789012345|789012345|
(PID.TID 0000.0001) //     36 onmmmmnoqrstuvwwxxxyyyxxxwwvutsrqonmmmmn
(PID.TID 0000.0001) //     35 nlkjjklnpqrtuvvwxxxyyyxxxwvvutrqpnlkjjkl
(PID.TID 0000.0001) //     34 mkhffhkmoqrsuuvwxxxxyxxxxwvuusrqomkhffhk
(PID.TID 0000.0001) //     33 omjf-fjmoqrstuvwxxxxyxxxxwvutsrqomjf-fjm
(PID.TID 0000.0001) //     32 omkhfhkmoqrsuuvwxxxxyxxxxwvuusrqomkhfhkm
(PID.TID 0000.0001) //     31 pnlkjklnpqrtuvvwxxxyyyxxxwvvutrqpnlkjkln
(PID.TID 0000.0001) //     30 qonmmmnoqrstuvwwxxxyyyxxxwwvutsrqonmmmno
(PID.TID 0000.0001) //     29 rqpooopqrstuuvwxxxyyyyyxxxwvuutsrqpooopq
(PID.TID 0000.0001) //     28 srqqpqqrsstuvwwxxyyyyyyyxxwwvutssrqqpqqr
(PID.TID 0000.0001) //     27 tsrrrrrsttuvvwxxyyyyyyyyyxxwvvuttsrrrrrs
(PID.TID 0000.0001) //     26 uttsssttuuvvwxxxyyyyzyyyyxxxwvvuuttssstt
(PID.TID 0000.0001) //     25 uuuutuuuuvvwwxxyyyzzzzzyyyxxwwvvuuuutuuu
(PID.TID 0000.0001) //     24 vvvuuuvvvwwxxxyyyzzzzzzzyyyxxxwwvvvuuuvv
(PID.TID 0000.0001) //     23 wwvvvvvwwwxxxyyyzzzzzzzzzyyyxxxwwwvvvvvw
(PID.TID 0000.0001) //     22 xwwwwwwwxxxxyyyzzzzzzzzzzzyyyxxxxwwwwwww
(PID.TID 0000.0001) //     21 xxxxxxxxxxyyyyzzzz+++++zzzzyyyyxxxxxxxxx
(PID.TID 0000.0001) //     20 xxxxxxxxxyyyyzzzz+++++++zzzzyyyyxxxxxxxx
(PID.TID 0000.0001) //     19 yxxxxxxxyyyyzzzz+++++++++zzzzyyyyxxxxxxx
(PID.TID 0000.0001) //     18 yyyxxxyyyyyyzzzz+++++++++zzzzyyyyyyxxxyy
(PID.TID 0000.0001) //     17 yyyyyyyyyyyzzzzz+++++++++zzzzzyyyyyyyyyy
(PID.TID 0000.0001) //     16 yyyxxxyyyyyyzzzz+++++++++zzzzyyyyyyxxxyy
(PID.TID 0000.0001) //     15 yxxxxxxxyyyyzzzz+++++++++zzzzyyyyxxxxxxx
(PID.TID 0000.0001) //     14 xxxxxxxxxyyyyzzzz+++++++zzzzyyyyxxxxxxxx
(PID.TID 0000.0001) //     13 xxxxxxxxxxyyyyzzzz+++++zzzzyyyyxxxxxxxxx
(PID.TID 0000.0001) //     12 xwwwwwwwxxxxyyyzzzzzzzzzzzyyyxxxxwwwwwww
(PID.TID 0000.0001) //     11 wwvvvvvwwwxxxyyyzzzzzzzzzyyyxxxwwwvvvvvw
(PID.TID 0000.0001) //     10 vvvuuuvvvwwxxxyyyzzzzzzzyyyxxxwwvvvuuuvv
(PID.TID 0000.0001) //      9 uuuutuuuuvvwwxxyyyzzzzzyyyxxwwvvuuuutuuu
(PID.TID 0000.0001) //      8 uttsssttuuvvwxxxyyyyzyyyyxxxwvvuuttssstt
(PID.TID 0000.0001) //      7 tsrrrrrsttuvvwxxyyyyyyyyyxxwvvuttsrrrrrs
(PID.TID 0000.0001) //      6 srqqpqqrsstuvwwxxyyyyyyyxxwwvutssrqqpqqr
(PID.TID 0000.0001) //      5 rqpooopqrstuuvwxxxyyyyyxxxwvuutsrqpooopq
(PID.TID 0000.0001) //      4 qonmmmnoqrstuvwwxxxyyyxxxwwvutsrqonmmmno
(PID.TID 0000.0001) //      3 pnlkjklnpqrtuvvwxxxyyyxxxwvvutrqpnlkjkln
(PID.TID 0000.0001) //      2 omkhfhkmoqrsuuvwxxxxyxxxxwvuusrqomkhfhkm
(PID.TID 0000.0001) //      1 omjf-fjmoqrstuvwxxxxyxxxxwvutsrqomjf-fjm
(PID.TID 0000.0001) //      0 omkhfhkmoqrsuuvwxxxxyxxxxwvuusrqomkhfkmo
(PID.TID 0000.0001) //     -1 pnlkjklnpqrtuvvwxxxyyyxxxwvvutrqpnlkjlnp
(PID.TID 0000.0001) //     -2 qonmmmnoqrstuvwwxxxyyyxxxwwvutsrqonmmnoq
(PID.TID 0000.0001) //     -3 qonmoopqrstuuvwxxxyyyyyxxxwvuutsrqpoopqr
(PID.TID 0000.0001) // =======================================================
(PID.TID 0000.0001) // END OF FIELD                                          =
(PID.TID 0000.0001) // =======================================================
(PID.TID 0000.0001) 
(PID.TID 0000.0001) // =======================================================
(PID.TID 0000.0001) // Field Current rAz      at iteration          0
(PID.TID 0000.0001) // CMIN =          8.831790061250492E+09
(PID.TID 0000.0001) // CMAX =          1.048434933461918E+11
(PID.TID 0000.0001) // CINT =          3.555989010553382E+09
(PID.TID 0000.0001) // SYMBOLS (CMIN->CMAX): -abcdefghijklmnopqrstuvwxyz+
(PID.TID 0000.0001) //                  0.0: .
(PID.TID 0000.0001) // RANGE I (Lo:Hi:Step):(    -3:    36:     1)
(PID.TID 0000.0001) // RANGE J (Lo:Hi:Step):(    36:    -3:    -1)
(PID.TID 0000.0001) // RANGE K (Lo:Hi:Step):(   1:   1:   1)
(PID.TID 0000.0001) // =======================================================
(PID.TID 0000.0001) K =   1
(PID.TID 0000.0001) //                I=6       I=16      I=26      I=36
(PID.TID 0000.0001) // |--J--|321012345|789012345|789012345|789012345|
(PID.TID 0000.0001) //     36 kkihhhiklnoqrstuvwwwwwwwvutsrqonlkihhhhi
(PID.TID 0000.0001) //     35 iihfffhikmoprstuvvwwwwwvvutsrpomkihffffh
(PID.TID 0000.0001) //     34 hhfdcdfhklnpqstuvvwwwwwvvutsqpnlkhfdccdf
(PID.TID 0000.0001) //     33 jhfc-cfhjlnpqstuvvwwwwwvvutsqpnljhfc-cfh
(PID.TID 0000.0001) //     32 khfdcdfhklnpqstuvvwwwwwvvutsqpnlkhfdcdfh
(PID.TID 0000.0001) //     31 kihfffhikmoprstuvvwwwwwvvutsrpomkihfffhi
(PID.TID 0000.0001) //     30 lkihhhiklnoqrstuvwwwwwwwvutsrqonlkihhhik
(PID.TID 0000.0001) //     29 nlkkjkklnopqstuvvwwxxxwwvvutsqponlkkjkkl
(PID.TID 0000.0001) //     28 onmlllmnopqrstuvwwxxxxxwwvutsrqponmlllmn
(PID.TID 0000.0001) //     27 poonnnoopqrstuvvwxxxxxxxwvvutsrqpoonnnoo
(PID.TID 0000.0001) //     26 qqpppppqqrstuvvwxxxyyyxxxwvvutsrqqpppppq
(PID.TID 0000.0001) //     25 srrqqqrrsstuuvwxxxyyyyyxxxwvuutssrrqqqrr
(PID.TID 0000.0001) //     24 tsssssssttuvvwwxyyyyyyyyyxwwvvuttsssssss
(PID.TID 0000.0001) //     23 utttttttuuvvwwxyyyzzzzzyyyxwwvvuuttttttt
(PID.TID 0000.0001) //     22 vuuuuuuuvvvwxxyyyzzzzzzzyyyxxwvvvuuuuuuu
(PID.TID 0000.0001) //     21 vvvvvvvvvwwxxyyyzzzzzzzzzyyyxxwwvvvvvvvv
(PID.TID 0000.0001) //     20 wwvvvvvwwwxxxyyzzz+++++zzzyyxxxwwwvvvvvw
(PID.TID 0000.0001) //     19 wwwwwwwwwxxxyyzzz+++++++zzzyyxxxwwwwwwww
(PID.TID 0000.0001) //     18 xwwwwwwwxxxyyyzzz+++++++zzzyyyxxxwwwwwww
(PID.TID 0000.0001) //     17 xwwwwwwwxxxyyyzzz+++++++zzzyyyxxxwwwwwww
(PID.TID 0000.0001) //     16 xwwwwwwwxxxyyyzzz+++++++zzzyyyxxxwwwwwww
(PID.TID 0000.0001) //     15 wwwwwwwwwxxxyyzzz+++++++zzzyyxxxwwwwwwww
(PID.TID 0000.0001) //     14 wwvvvvvwwwxxxyyzzz+++++zzzyyxxxwwwvvvvvw
(PID.TID 0000.0001) //     13 vvvvvvvvvwwxxyyyzzzzzzzzzyyyxxwwvvvvvvvv
(PID.TID 0000.0001) //     12 vuuuuuuuvvvwxxyyyzzzzzzzyyyxxwvvvuuuuuuu
(PID.TID 0000.0001) //     11 utttttttuuvvwwxyyyzzzzzyyyxwwvvuuttttttt
(PID.TID 0000.0001) //     10 tsssssssttuvvwwxyyyyyyyyyxwwvvuttsssssss
(PID.TID 0000.0001) //      9 srrqqqrrsstuuvwxxxyyyyyxxxwvuutssrrqqqrr
(PID.TID 0000.0001) //      8 qqpppppqqrstuvvwxxxyyyxxxwvvutsrqqpppppq
(PID.TID 0000.0001) //      7 poonnnoopqrstuvvwxxxxxxxwvvutsrqpoonnnoo
(PID.TID 0000.0001) //      6 onmlllmnopqrstuvwwxxxxxwwvutsrqponmlllmn
(PID.TID 0000.0001) //      5 nlkkjkklnopqstuvvwwxxxwwvvutsqponlkkjkkl
(PID.TID 0000.0001) //      4 lkihhhiklnoqrstuvwwwwwwwvutsrqonlkihhhik
(PID.TID 0000.0001) //      3 kihfffhikmoprstuvvwwwwwvvutsrpomkihfffhi
(PID.TID 0000.0001) //      2 khfdcdfhklnpqstuvvwwwwwvvutsqpnlkhfdcdfh
(PID.TID 0000.0001) //      1 jhfc-cfhjlnpqstuvvwwwwwvvutsqpnljhfc-cfh
(PID.TID 0000.0001) //      0 khfdcdfhklnpqstuvvwwwwwvvutsqpnlkhfdcfhk
(PID.TID 0000.0001) //     -1 kihfffhikmoprstuvvwwwwwvvutsrpomkihffhik
(PID.TID 0000.0001) //     -2 lkihhhiklnoqrstuvwwwwwwwvutsrqonlkihhikl
(PID.TID 0000.0001) //     -3 lkihjkklnopqstuvvwwxxxwwvvutsqponlkkkkln
(PID.TID 0000.0001) // =======================================================
(PID.TID 0000.0001) // END OF FIELD                                          =
(PID.TID 0000.0001) // =======================================================
(PID.TID 0000.0001) 
(PID.TID 0000.0001) // =======================================================
(PID.TID 0000.0001) // Field Current dxC      at iteration          0
(PID.TID 0000.0001) // CMIN =          1.114203141013064E+05
(PID.TID 0000.0001) // CMAX =          3.237518583690030E+05
(PID.TID 0000.0001) // CINT =          7.864131269173949E+03
(PID.TID 0000.0001) // SYMBOLS (CMIN->CMAX): -abcdefghijklmnopqrstuvwxyz+
(PID.TID 0000.0001) //                  0.0: .
(PID.TID 0000.0001) // RANGE I (Lo:Hi:Step):(    -3:    36:     1)
(PID.TID 0000.0001) // RANGE J (Lo:Hi:Step):(    36:    -3:    -1)
(PID.TID 0000.0001) // RANGE K (Lo:Hi:Step):(   1:   1:   1)
(PID.TID 0000.0001) // =======================================================
(PID.TID 0000.0001) K =   1
(PID.TID 0000.0001) //                I=6       I=16      I=26      I=36
(PID.TID 0000.0001) // |--J--|321012345|789012345|789012345|789012345|
(PID.TID 0000.0001) //     36 pnmlllmnpqrstuvwwxxxxxxxwwvutsrqpnmll...
(PID.TID 0000.0001) //     35 nmkjijkmnpqstuvwwxxxxxxxwwvutsqpnmkji...
(PID.TID 0000.0001) //     34 nkigfgiknoqrtuvvwxxxxxxxwvvutrqonkigf...
(PID.TID 0000.0001) //     33 mkhd-dhkmoqrtuvvwxxxxxxxwvvutrqomkhd-d..
(PID.TID 0000.0001) //     32 mkhd-dhkmoqrtuvvwxxxxxxxwvvutrqomkhd-dhk
(PID.TID 0000.0001) //     31 nkigfgiknoqrtuvvwxxxxxxxwvvutrqonkigfgik
(PID.TID 0000.0001) //     30 nmkjijkmnpqstuvwwxxxxxxxwwvutsqpnmkjijkm
(PID.TID 0000.0001) //     29 pnmlllmnpqrstuvwwxxxxxxxwwvutsrqpnmlllmn
(PID.TID 0000.0001) //     28 qponnnopqrstuvwwxxxyyyxxxwwvutsrqponnnop
(PID.TID 0000.0001) //     27 rqpppppqrstuuvwxxxyyyyyxxxwvuutsrqpppppq
(PID.TID 0000.0001) //     26 srrrqrrrstuuvwwxxyyyyyyyxxwwvuutsrrrqrrr
(PID.TID 0000.0001) //     25 ttsssssttuuvwwxxyyyyyyyyyxxwwvuuttssssst
(PID.TID 0000.0001) //     24 uutttttuuvvwwxxyyyzzzzzyyyxxwwvvuutttttu
(PID.TID 0000.0001) //     23 vvuuuuuvvvwwxxyyyzzzzzzzyyyxxwwvvvuuuuuv
(PID.TID 0000.0001) //     22 wvvvvvvvwwwxxyyyzzzzzzzzzyyyxxwwwvvvvvvv
(PID.TID 0000.0001) //     21 wwwwwwwwwxxxyyyzzzzzzzzzzzyyyxxxwwwwwwww
(PID.TID 0000.0001) //     20 xxwwwwwxxxxyyyzzzz+++++zzzzyyyxxxxwwwwwx
(PID.TID 0000.0001) //     19 xxxxxxxxxxyyyzzzz+++++++zzzzyyyxxxxxxxxx
(PID.TID 0000.0001) //     18 xxxxxxxxxyyyzzzz+++++++++zzzzyyyxxxxxxxx
(PID.TID 0000.0001) //     17 yxxxxxxxyyyyzzzz+++++++++zzzzyyyyxxxxxxx
(PID.TID 0000.0001) //     16 yxxxxxxxyyyyzzzz+++++++++zzzzyyyyxxxxxxx
(PID.TID 0000.0001) //     15 xxxxxxxxxyyyzzzz+++++++++zzzzyyyxxxxxxxx
(PID.TID 0000.0001) //     14 xxxxxxxxxxyyyzzzz+++++++zzzzyyyxxxxxxxxx
(PID.TID 0000.0001) //     13 xxwwwwwxxxxyyyzzzz+++++zzzzyyyxxxxwwwwwx
(PID.TID 0000.0001) //     12 wwwwwwwwwxxxyyyzzzzzzzzzzzyyyxxxwwwwwwww
(PID.TID 0000.0001) //     11 wvvvvvvvwwwxxyyyzzzzzzzzzyyyxxwwwvvvvvvv
(PID.TID 0000.0001) //     10 vvuuuuuvvvwwxxyyyzzzzzzzyyyxxwwvvvuuuuuv
(PID.TID 0000.0001) //      9 uutttttuuvvwwxxyyyzzzzzyyyxxwwvvuutttttu
(PID.TID 0000.0001) //      8 ttsssssttuuvwwxxyyyyyyyyyxxwwvuuttssssst
(PID.TID 0000.0001) //      7 srrrqrrrstuuvwwxxyyyyyyyxxwwvuutsrrrqrrr
(PID.TID 0000.0001) //      6 rqpppppqrstuuvwxxxyyyyyxxxwvuutsrqpppppq
(PID.TID 0000.0001) //      5 qponnnopqrstuvwwxxxyyyxxxwwvutsrqponnnop
(PID.TID 0000.0001) //      4 pnmlllmnpqrstuvwwxxxxxxxwwvutsrqpnmlllmn
(PID.TID 0000.0001) //      3 nmkjijkmnpqstuvwwxxxxxxxwwvutsqpnmkjijkm
(PID.TID 0000.0001) //      2 nkigfgiknoqrtuvvwxxxxxxxwvvutrqonkigfgik
(PID.TID 0000.0001) //      1 mkhd-dhkmoqrtuvvwxxxxxxxwvvutrqomkhd-dhk
(PID.TID 0000.0001) //      0 mkhd-dhkmoqrtuvvwxxxxxxxwvvutrqomkhd-dhk
(PID.TID 0000.0001) //     -1 nkigfgiknoqrtuvvwxxxxxxxwvvutrqonkigfgik
(PID.TID 0000.0001) //     -2 nmkjijkmnpqstuvwwxxxxxxxwwvutsqpnmkjijkm
(PID.TID 0000.0001) //     -3 pnmlllmnpqrstuvwwxxxxxxxwwvutsrqpnmlllmn
(PID.TID 0000.0001) // =======================================================
(PID.TID 0000.0001) // END OF FIELD                                          =
(PID.TID 0000.0001) // =======================================================
(PID.TID 0000.0001) 
(PID.TID 0000.0001) // =======================================================
(PID.TID 0000.0001) // Field Current dyC      at iteration          0
(PID.TID 0000.0001) // CMIN =          1.114203141013064E+05
(PID.TID 0000.0001) // CMAX =          3.237518583690030E+05
(PID.TID 0000.0001) // CINT =          7.864131269173949E+03
(PID.TID 0000.0001) // SYMBOLS (CMIN->CMAX): -abcdefghijklmnopqrstuvwxyz+
(PID.TID 0000.0001) //                  0.0: .
(PID.TID 0000.0001) // RANGE I (Lo:Hi:Step):(    -3:    36:     1)
(PID.TID 0000.0001) // RANGE J (Lo:Hi:Step):(    36:    -3:    -1)
(PID.TID 0000.0001) // RANGE K (Lo:Hi:Step):(   1:   1:   1)
(PID.TID 0000.0001) // =======================================================
(PID.TID 0000.0001) K =   1
(PID.TID 0000.0001) //                I=6       I=16      I=26      I=36
(PID.TID 0000.0001) // |--J--|321012345|789012345|789012345|789012345|
(PID.TID 0000.0001) //     36 nmkkkkmnpqrtuvvwxxxxxxxxwvvutrqpnmkk....
(PID.TID 0000.0001) //     35 mkihhikmoprstuvwwxxxxxxwwvutsrpomkih....
(PID.TID 0000.0001) //     34 ljgddgjlnprstuvwwxxxxxxwwvutsrpnljgdd...
(PID.TID 0000.0001) //     33 lif--filnpqstuvwwxxxxxxwwvutsqpnlif--fil
(PID.TID 0000.0001) //     32 ljgddgjlnprstuvwwxxxxxxwwvutsrpnljgddgjl
(PID.TID 0000.0001) //     31 mkihhikmoprstuvwwxxxxxxwwvutsrpomkihhikm
(PID.TID 0000.0001) //     30 nmkkkkmnpqrtuvvwxxxxxxxxwvvutrqpnmkkkkmn
(PID.TID 0000.0001) //     29 pnnmmnnpqrstuvwwxxxyyxxxwwvutsrqpnnmmnnp
(PID.TID 0000.0001) //     28 qpoooopqrstuvvwxxxyyyyxxxwvvutsrqpoooopq
(PID.TID 0000.0001) //     27 rqqqqqqrstuuvwwxxyyyyyyxxwwvuutsrqqqqqqr
(PID.TID 0000.0001) //     26 ssrrrrsstuuvwwxxyyyyyyyyxxwwvuutssrrrrss
(PID.TID 0000.0001) //     25 ttttttttuuvwwxxyyyzzzzyyyxxwwvuutttttttt
(PID.TID 0000.0001) //     24 uuuuuuuuvvwwxxyyyzzzzzzyyyxxwwvvuuuuuuuu
(PID.TID 0000.0001) //     23 vvvvvvvvwwwxxyyyzzzzzzzzyyyxxwwwvvvvvvvv
(PID.TID 0000.0001) //     22 wwvvvvwwwxxxyyyzzzzzzzzzzyyyxxxwwwvvvvww
(PID.TID 0000.0001) //     21 wwwwwwwwxxxyyyzzzz++++zzzzyyyxxxwwwwwwww
(PID.TID 0000.0001) //     20 xxxxxxxxxxyyyzzzz++++++zzzzyyyxxxxxxxxxx
(PID.TID 0000.0001) //     19 xxxxxxxxxyyyzzzz++++++++zzzzyyyxxxxxxxxx
(PID.TID 0000.0001) //     18 xxxxxxxxyyyyzzzz++++++++zzzzyyyyxxxxxxxx
(PID.TID 0000.0001) //     17 xxxxxxxxyyyyzzzz++++++++zzzzyyyyxxxxxxxx
(PID.TID 0000.0001) //     16 xxxxxxxxyyyyzzzz++++++++zzzzyyyyxxxxxxxx
(PID.TID 0000.0001) //     15 xxxxxxxxxyyyzzzz++++++++zzzzyyyxxxxxxxxx
(PID.TID 0000.0001) //     14 xxxxxxxxxxyyyzzzz++++++zzzzyyyxxxxxxxxxx
(PID.TID 0000.0001) //     13 wwwwwwwwxxxyyyzzzz++++zzzzyyyxxxwwwwwwww
(PID.TID 0000.0001) //     12 wwvvvvwwwxxxyyyzzzzzzzzzzyyyxxxwwwvvvvww
(PID.TID 0000.0001) //     11 vvvvvvvvwwwxxyyyzzzzzzzzyyyxxwwwvvvvvvvv
(PID.TID 0000.0001) //     10 uuuuuuuuvvwwxxyyyzzzzzzyyyxxwwvvuuuuuuuu
(PID.TID 0000.0001) //      9 ttttttttuuvwwxxyyyzzzzyyyxxwwvuutttttttt
(PID.TID 0000.0001) //      8 ssrrrrsstuuvwwxxyyyyyyyyxxwwvuutssrrrrss
(PID.TID 0000.0001) //      7 rqqqqqqrstuuvwwxxyyyyyyxxwwvuutsrqqqqqqr
(PID.TID 0000.0001) //      6 qpoooopqrstuvvwxxxyyyyxxxwvvutsrqpoooopq
(PID.TID 0000.0001) //      5 pnnmmnnpqrstuvwwxxxyyxxxwwvutsrqpnnmmnnp
(PID.TID 0000.0001) //      4 nmkkkkmnpqrtuvvwxxxxxxxxwvvutrqpnmkkkkmn
(PID.TID 0000.0001) //      3 mkihhikmoprstuvwwxxxxxxwwvutsrpomkihhikm
(PID.TID 0000.0001) //      2 ljgddgjlnprstuvwwxxxxxxwwvutsrpnljgddgjl
(PID.TID 0000.0001) //      1 lif--filnpqstuvwwxxxxxxwwvutsqpnlif--fil
(PID.TID 0000.0001) //      0 ljgddgjlnprstuvwwxxxxxxwwvutsrpnljgddgjl
(PID.TID 0000.0001) //     -1 mkihhikmoprstuvwwxxxxxxwwvutsrpomkihhikm
(PID.TID 0000.0001) //     -2 nmkkkkmnpqrtuvvwxxxxxxxxwvvutrqpnmkkkkmn
(PID.TID 0000.0001) //     -3 pnnmmnnpqrstuvwwxxxyyxxxwwvutsrqpnnmmnnp
(PID.TID 0000.0001) // =======================================================
(PID.TID 0000.0001) // END OF FIELD                                          =
(PID.TID 0000.0001) // =======================================================
(PID.TID 0000.0001) 
(PID.TID 0000.0001) // =======================================================
(PID.TID 0000.0001) // Field Current rAw      at iteration          0
(PID.TID 0000.0001) // CMIN =          1.216690346714270E+10
(PID.TID 0000.0001) // CMAX =          1.048096527455915E+11
(PID.TID 0000.0001) // CINT =          3.431212936238845E+09
(PID.TID 0000.0001) // SYMBOLS (CMIN->CMAX): -abcdefghijklmnopqrstuvwxyz+
(PID.TID 0000.0001) //                  0.0: .
(PID.TID 0000.0001) // RANGE I (Lo:Hi:Step):(    -3:    36:     1)
(PID.TID 0000.0001) // RANGE J (Lo:Hi:Step):(    36:    -3:    -1)
(PID.TID 0000.0001) // RANGE K (Lo:Hi:Step):(   1:   1:   1)
(PID.TID 0000.0001) // =======================================================
(PID.TID 0000.0001) K =   1
(PID.TID 0000.0001) //                I=6       I=16      I=26      I=36
(PID.TID 0000.0001) // |--J--|321012345|789012345|789012345|789012345|
(PID.TID 0000.0001) //     36 lkjiiijklnoqrstuvwwwwwwwvutsrqonlkjii...
(PID.TID 0000.0001) //     35 kjhgfghjkmopqstuvvwwwwwvvutsqpomkjhgf...
(PID.TID 0000.0001) //     34 jhfdcdfhjlnpqrtuuvwwwwwvuutrqpnljhfdc...
(PID.TID 0000.0001) //     33 jheb-behjlnoqrsuuvwwwwwvuusrqonljheb-b..
(PID.TID 0000.0001) //     32 jheb-behjlnoqrsuuvwwwwwvuusrqonljheb-beh
(PID.TID 0000.0001) //     31 jhfdcdfhjlnpqrtuuvwwwwwvuutrqpnljhfdcdfh
(PID.TID 0000.0001) //     30 kjhgfghjkmopqstuvvwwwwwvvutsqpomkjhgfghj
(PID.TID 0000.0001) //     29 lkjiiijklnoqrstuvwwwwwwwvutsrqonlkjiiijk
(PID.TID 0000.0001) //     28 nmlkkklmnopqstuvvwwxxxwwvvutsqponmlkkklm
(PID.TID 0000.0001) //     27 onmmmmmnopqrstuvwwxxxxxwwvutsrqponmmmmmn
(PID.TID 0000.0001) //     26 ppoooooppqrstuvwwxxxxxxxwwvutsrqppooooop
(PID.TID 0000.0001) //     25 rqqpppqqrrstuvvwxxxyyyxxxwvvutsrrqqpppqq
(PID.TID 0000.0001) //     24 srrrrrrrsttuvvwxxyyyyyyyxxwvvuttsrrrrrrr
(PID.TID 0000.0001) //     23 ttsssssttuuvvwxxyyyyzyyyyxxwvvuuttssssst
(PID.TID 0000.0001) //     22 uutttttuuuvwwxxyyyzzzzzyyyxxwwvuuutttttu
(PID.TID 0000.0001) //     21 vuuuuuuuvvwwxxyyzzzzzzzzzyyxxwwvvuuuuuuu
(PID.TID 0000.0001) //     20 vvvvvvvvvwwxxyyzzzz+++zzzzyyxxwwvvvvvvvv
(PID.TID 0000.0001) //     19 wwvvvvvwwwxxyyyzzz+++++zzzyyyxxwwwvvvvvw
(PID.TID 0000.0001) //     18 wwwwwwwwwxxxyyzzz+++++++zzzyyxxxwwwwwwww
(PID.TID 0000.0001) //     17 wwwwwwwwwxxyyyzzz+++++++zzzyyyxxwwwwwwww
(PID.TID 0000.0001) //     16 wwwwwwwwwxxyyyzzz+++++++zzzyyyxxwwwwwwww
(PID.TID 0000.0001) //     15 wwwwwwwwwxxxyyzzz+++++++zzzyyxxxwwwwwwww
(PID.TID 0000.0001) //     14 wwvvvvvwwwxxyyyzzz+++++zzzyyyxxwwwvvvvvw
(PID.TID 0000.0001) //     13 vvvvvvvvvwwxxyyzzzz+++zzzzyyxxwwvvvvvvvv
(PID.TID 0000.0001) //     12 vuuuuuuuvvwwxxyyzzzzzzzzzyyxxwwvvuuuuuuu
(PID.TID 0000.0001) //     11 uutttttuuuvwwxxyyyzzzzzyyyxxwwvuuutttttu
(PID.TID 0000.0001) //     10 ttsssssttuuvvwxxyyyyzyyyyxxwvvuuttssssst
(PID.TID 0000.0001) //      9 srrrrrrrsttuvvwxxyyyyyyyxxwvvuttsrrrrrrr
(PID.TID 0000.0001) //      8 rqqpppqqrrstuvvwxxxyyyxxxwvvutsrrqqpppqq
(PID.TID 0000.0001) //      7 ppoooooppqrstuvwwxxxxxxxwwvutsrqppooooop
(PID.TID 0000.0001) //      6 onmmmmmnopqrstuvwwxxxxxwwvutsrqponmmmmmn
(PID.TID 0000.0001) //      5 nmlkkklmnopqstuvvwwxxxwwvvutsqponmlkkklm
(PID.TID 0000.0001) //      4 lkjiiijklnoqrstuvwwwwwwwvutsrqonlkjiiijk
(PID.TID 0000.0001) //      3 kjhgfghjkmopqstuvvwwwwwvvutsqpomkjhgfghj
(PID.TID 0000.0001) //      2 jhfdcdfhjlnpqrtuuvwwwwwvuutrqpnljhfdcdfh
(PID.TID 0000.0001) //      1 jheb-behjlnoqrsuuvwwwwwvuusrqonljheb-beh
(PID.TID 0000.0001) //      0 jheb-behjlnoqrsuuvwwwwwvuusrqonljheb-beh
(PID.TID 0000.0001) //     -1 jhfdcdfhjlnpqrtuuvwwwwwvuutrqpnljhfdcdfh
(PID.TID 0000.0001) //     -2 kjhgfghjkmopqstuvvwwwwwvvutsqpomkjhgfghj
(PID.TID 0000.0001) //     -3 lkjiiijklnoqrstuvwwwwwwwvutsrqonlkjiiijk
(PID.TID 0000.0001) // =======================================================
(PID.TID 0000.0001) // END OF FIELD                                          =
(PID.TID 0000.0001) // =======================================================
(PID.TID 0000.0001) 
(PID.TID 0000.0001) // =======================================================
(PID.TID 0000.0001) // Field Current rAs      at iteration          0
(PID.TID 0000.0001) // CMIN =          1.216690346714270E+10
(PID.TID 0000.0001) // CMAX =          1.048096527455915E+11
(PID.TID 0000.0001) // CINT =          3.431212936238845E+09
(PID.TID 0000.0001) // SYMBOLS (CMIN->CMAX): -abcdefghijklmnopqrstuvwxyz+
(PID.TID 0000.0001) //                  0.0: .
(PID.TID 0000.0001) // RANGE I (Lo:Hi:Step):(    -3:    36:     1)
(PID.TID 0000.0001) // RANGE J (Lo:Hi:Step):(    36:    -3:    -1)
(PID.TID 0000.0001) // RANGE K (Lo:Hi:Step):(   1:   1:   1)
(PID.TID 0000.0001) // =======================================================
(PID.TID 0000.0001) K =   1
(PID.TID 0000.0001) //                I=6       I=16      I=26      I=36
(PID.TID 0000.0001) // |--J--|321012345|789012345|789012345|789012345|
(PID.TID 0000.0001) //     36 kjhhhhjkmnpqrtuuvwwwwwwvuutrqpnmkjhh....
(PID.TID 0000.0001) //     35 jhfeefhjlmoqrstuvvwwwwvvutsrqomljhfe....
(PID.TID 0000.0001) //     34 igdbbdgikmoprstuvvwwwwvvutsrpomkigdbb...
(PID.TID 0000.0001) //     33 ifc--cfikmoprstuvvwwwwvvutsrpomkifc--cfi
(PID.TID 0000.0001) //     32 igdbbdgikmoprstuvvwwwwvvutsrpomkigdbbdgi
(PID.TID 0000.0001) //     31 jhfeefhjlmoqrstuvvwwwwvvutsrqomljhfeefhj
(PID.TID 0000.0001) //     30 kjhhhhjkmnpqrtuuvwwwwwwvuutrqpnmkjhhhhjk
(PID.TID 0000.0001) //     29 lkjjjjklnoprstuvvwwwwwwvvutsrponlkjjjjkl
(PID.TID 0000.0001) //     28 nmllllmnopqrtuuvwwxxxxwwvuutrqponmllllmn
(PID.TID 0000.0001) //     27 oonnnnoopqrstuvwwxxxxxxwwvutsrqpoonnnnoo
(PID.TID 0000.0001) //     26 qppooppqqrstuvwwxxxyyxxxwwvutsrqqppooppq
(PID.TID 0000.0001) //     25 rqqqqqqrsstuvvwxxyyyyyyxxwvvutssrqqqqqqr
(PID.TID 0000.0001) //     24 ssrrrrssttuvvwxxyyyyyyyyxxwvvuttssrrrrss
(PID.TID 0000.0001) //     23 tttsstttuuvvwxxyyyzzzzyyyxxwvvuutttssttt
(PID.TID 0000.0001) //     22 uuuuuuuuvvwwxxyyzzzzzzzzyyxxwwvvuuuuuuuu
(PID.TID 0000.0001) //     21 vvuuuuvvvwwxxyyzzzzzzzzzzyyxxwwvvvuuuuvv
(PID.TID 0000.0001) //     20 wvvvvvvwwwxxyyyzzz++++zzzyyyxxwwwvvvvvvw
(PID.TID 0000.0001) //     19 wwwwwwwwwxxxyyzzz++++++zzzyyxxxwwwwwwwww
(PID.TID 0000.0001) //     18 wwwwwwwwxxxyyyzz++++++++zzyyyxxxwwwwwwww
(PID.TID 0000.0001) //     17 wwwwwwwwxxxyyzzz++++++++zzzyyxxxwwwwwwww
(PID.TID 0000.0001) //     16 wwwwwwwwxxxyyyzz++++++++zzyyyxxxwwwwwwww
(PID.TID 0000.0001) //     15 wwwwwwwwwxxxyyzzz++++++zzzyyxxxwwwwwwwww
(PID.TID 0000.0001) //     14 wvvvvvvwwwxxyyyzzz++++zzzyyyxxwwwvvvvvvw
(PID.TID 0000.0001) //     13 vvuuuuvvvwwxxyyzzzzzzzzzzyyxxwwvvvuuuuvv
(PID.TID 0000.0001) //     12 uuuuuuuuvvwwxxyyzzzzzzzzyyxxwwvvuuuuuuuu
(PID.TID 0000.0001) //     11 tttsstttuuvvwxxyyyzzzzyyyxxwvvuutttssttt
(PID.TID 0000.0001) //     10 ssrrrrssttuvvwxxyyyyyyyyxxwvvuttssrrrrss
(PID.TID 0000.0001) //      9 rqqqqqqrsstuvvwxxyyyyyyxxwvvutssrqqqqqqr
(PID.TID 0000.0001) //      8 qppooppqqrstuvwwxxxyyxxxwwvutsrqqppooppq
(PID.TID 0000.0001) //      7 oonnnnoopqrstuvwwxxxxxxwwvutsrqpoonnnnoo
(PID.TID 0000.0001) //      6 nmllllmnopqrtuuvwwxxxxwwvuutrqponmllllmn
(PID.TID 0000.0001) //      5 lkjjjjklnoprstuvvwwwwwwvvutsrponlkjjjjkl
(PID.TID 0000.0001) //      4 kjhhhhjkmnpqrtuuvwwwwwwvuutrqpnmkjhhhhjk
(PID.TID 0000.0001) //      3 jhfeefhjlmoqrstuvvwwwwvvutsrqomljhfeefhj
(PID.TID 0000.0001) //      2 igdbbdgikmoprstuvvwwwwvvutsrpomkigdbbdgi
(PID.TID 0000.0001) //      1 ifc--cfikmoprstuvvwwwwvvutsrpomkifc--cfi
(PID.TID 0000.0001) //      0 igdbbdgikmoprstuvvwwwwvvutsrpomkigdbbdgi
(PID.TID 0000.0001) //     -1 jhfeefhjlmoqrstuvvwwwwvvutsrqomljhfeefhj
(PID.TID 0000.0001) //     -2 kjhhhhjkmnpqrtuuvwwwwwwvuutrqpnmkjhhhhjk
(PID.TID 0000.0001) //     -3 lkjjjjklnoprstuvvwwwwwwvvutsrponlkjjjjkl
(PID.TID 0000.0001) // =======================================================
(PID.TID 0000.0001) // END OF FIELD                                          =
(PID.TID 0000.0001) // =======================================================
(PID.TID 0000.0001) 
(PID.TID 0000.0001) // =======================================================
(PID.TID 0000.0001) // Field Current dxG      at iteration          0
(PID.TID 0000.0001) // CMIN =          1.009837800879055E+05
(PID.TID 0000.0001) // CMAX =          3.237519587277332E+05
(PID.TID 0000.0001) // CINT =          8.250673282956579E+03
(PID.TID 0000.0001) // SYMBOLS (CMIN->CMAX): -abcdefghijklmnopqrstuvwxyz+
(PID.TID 0000.0001) //                  0.0: .
(PID.TID 0000.0001) // RANGE I (Lo:Hi:Step):(    -3:    36:     1)
[...]
(PID.TID 0000.0001)  MDS_WRITE_FIELD: it,rec,kS,kL,kH=      94    -1  32   1   1 file=atmPload.0000000094
(PID.TID 0000.0001)  write diagnostics summary to file: diagnostics_status.0000000095.txt
(PID.TID 0000.0001) DEBUG_MSG: LEAVING S/R FORWARD_STEP
(PID.TID 0000.0001) DEBUG_MSG: ENTERED S/R FORWARD_STEP
(PID.TID 0000.0001) DEBUG_MSG: CALLING S/R LOAD_FIELDS_DRIVER
(PID.TID 0000.0001) DEBUG_MSG: ENTERED S/R LOAD_FIELDS_DRIVER
(PID.TID 0000.0001) DEBUG_MSG: CALLING S/R EXTERNAL_FIELDS_LOAD
(PID.TID 0000.0001) DEBUG_MSG: LEAVING S/R LOAD_FIELDS_DRIVER
(PID.TID 0000.0001) DEBUG_MSG: CALLING S/R DO_ATMOSPHERIC_PHYS
(PID.TID 0000.0001) DEBUG_MSG: ENTERED S/R DO_ATMOSPHERIC_PHYS
(PID.TID 0000.0001) DEBUG_MSG: LEAVING S/R DO_ATMOSPHERIC_PHYS
(PID.TID 0000.0001) DEBUG_MSG: CALLING S/R DO_OCEANIC_PHYS
(PID.TID 0000.0001) DEBUG_MSG: ENTERED S/R DO_OCEANIC_PHYS
(PID.TID 0000.0001) DEBUG_MSG: CALLING S/R EXTERNAL_FORCING_SURF
(PID.TID 0000.0001) DEBUG_MSG: CALLING S/R FIND_RHO_2D (xNr)
(PID.TID 0000.0001) DEBUG_MSG:                  ENTERING UPWARD K LOOP (bi=   1, bj=   1)
(PID.TID 0000.0001) DEBUG_MSG: CALLING S/R GRAD_SIGMA
(PID.TID 0000.0001) DEBUG_MSG: CALLING S/R CALC_IVDC
(PID.TID 0000.0001) DEBUG_MSG: CALLING S/R GRAD_SIGMA
(PID.TID 0000.0001) DEBUG_MSG: CALLING S/R CALC_IVDC
(PID.TID 0000.0001) DEBUG_MSG: CALLING S/R GRAD_SIGMA
(PID.TID 0000.0001) DEBUG_MSG: CALLING S/R CALC_IVDC
(PID.TID 0000.0001) DEBUG_MSG: CALLING S/R GRAD_SIGMA
(PID.TID 0000.0001) DEBUG_MSG: CALLING S/R CALC_IVDC
(PID.TID 0000.0001) DEBUG_MSG: CALLING S/R GRAD_SIGMA
(PID.TID 0000.0001) DEBUG_MSG: CALLING S/R CALC_IVDC
(PID.TID 0000.0001) DEBUG_MSG: CALLING S/R GRAD_SIGMA
(PID.TID 0000.0001) DEBUG_MSG: CALLING S/R CALC_IVDC
(PID.TID 0000.0001) DEBUG_MSG: CALLING S/R GRAD_SIGMA
(PID.TID 0000.0001) DEBUG_MSG: CALLING S/R CALC_IVDC
(PID.TID 0000.0001) DEBUG_MSG: CALLING S/R GRAD_SIGMA
(PID.TID 0000.0001) DEBUG_MSG: CALLING S/R CALC_IVDC
(PID.TID 0000.0001) DEBUG_MSG: CALLING S/R GRAD_SIGMA
(PID.TID 0000.0001) DEBUG_MSG: CALLING S/R CALC_IVDC
(PID.TID 0000.0001) DEBUG_MSG: CALLING S/R GRAD_SIGMA
(PID.TID 0000.0001) DEBUG_MSG: CALLING S/R CALC_IVDC
(PID.TID 0000.0001) DEBUG_MSG: CALLING S/R GRAD_SIGMA
(PID.TID 0000.0001) DEBUG_MSG: CALLING S/R CALC_IVDC
(PID.TID 0000.0001) DEBUG_MSG: CALLING S/R GRAD_SIGMA
(PID.TID 0000.0001) DEBUG_MSG: CALLING S/R CALC_IVDC
(PID.TID 0000.0001) DEBUG_MSG: CALLING S/R GRAD_SIGMA
(PID.TID 0000.0001) DEBUG_MSG: CALLING S/R CALC_IVDC
(PID.TID 0000.0001) DEBUG_MSG: CALLING S/R GRAD_SIGMA
(PID.TID 0000.0001) DEBUG_MSG: CALLING S/R CALC_IVDC
(PID.TID 0000.0001) DEBUG_MSG: CALLING S/R GRAD_SIGMA
(PID.TID 0000.0001) DEBUG_MSG: CALLING S/R CALC_IVDC
(PID.TID 0000.0001) DEBUG_MSG: CALLING S/R GRAD_SIGMA
(PID.TID 0000.0001) DEBUG_MSG: CALLING S/R GMREDI_CALC_TENSOR
(PID.TID 0000.0001) DEBUG_MSG: LEAVING S/R DO_OCEANIC_PHYS
(PID.TID 0000.0001) DEBUG_MSG: CALLING S/R DYNAMICS
(PID.TID 0000.0001) DEBUG_MSG: ENTERED S/R DYNAMICS
DEBUG_STATS_RL:                EtaN (DYNAMICS)  min= -7.26829565389665E-01
DEBUG_STATS_RL:                EtaN (DYNAMICS)  max=  1.29576637710393E+00
DEBUG_STATS_RL:                EtaN (DYNAMICS) mean=  4.83338683568999E-02
DEBUG_STATS_RL:                EtaN (DYNAMICS) S.D.=  7.05707841061610E-02
DEBUG_STATS_RL:                Uvel (DYNAMICS)  min= -4.74069379958784E-01
DEBUG_STATS_RL:                Uvel (DYNAMICS)  max=  2.49181919083034E-01
DEBUG_STATS_RL:                Uvel (DYNAMICS) mean= -9.35525230381796E-04
DEBUG_STATS_RL:                Uvel (DYNAMICS) S.D.=  2.02008172181476E-02
DEBUG_STATS_RL:                Vvel (DYNAMICS)  min= -4.12852584098871E-01
DEBUG_STATS_RL:                Vvel (DYNAMICS)  max=  3.82242560014686E-01
DEBUG_STATS_RL:                Vvel (DYNAMICS) mean= -4.40692936946763E-04
DEBUG_STATS_RL:                Vvel (DYNAMICS) S.D.=  2.25747613393493E-02
DEBUG_STATS_RL:                Wvel (DYNAMICS)  min= -9.12385828938770E-05
DEBUG_STATS_RL:                Wvel (DYNAMICS)  max=  1.18992005623876E-04
DEBUG_STATS_RL:                Wvel (DYNAMICS) mean= -2.37943408562227E-07
DEBUG_STATS_RL:                Wvel (DYNAMICS) S.D.=  6.08295563386658E-06
DEBUG_STATS_RL:               Theta (DYNAMICS)  min=  1.60670652837547E+01
DEBUG_STATS_RL:               Theta (DYNAMICS)  max=  2.41625861625564E+01
DEBUG_STATS_RL:               Theta (DYNAMICS) mean=  2.00056543702953E+01
DEBUG_STATS_RL:               Theta (DYNAMICS) S.D.=  1.06147478073011E-01
DEBUG_STATS_RL:                Salt (DYNAMICS)  min=  2.28116455737476E+01
DEBUG_STATS_RL:                Salt (DYNAMICS)  max=  3.51509540947738E+01
DEBUG_STATS_RL:                Salt (DYNAMICS) mean=  3.49965294236770E+01
DEBUG_STATS_RL:                Salt (DYNAMICS) S.D.=  1.40696307457988E-01
DEBUG_STATS_RL:                  Gu (DYNAMICS)  min= -4.71599272270988E-01
DEBUG_STATS_RL:                  Gu (DYNAMICS)  max=  2.46567828741169E-01
DEBUG_STATS_RL:                  Gu (DYNAMICS) mean= -9.42578624284509E-04
DEBUG_STATS_RL:                  Gu (DYNAMICS) S.D.=  2.01801961117393E-02
DEBUG_STATS_RL:                  Gv (DYNAMICS)  min= -4.10275744248205E-01
DEBUG_STATS_RL:                  Gv (DYNAMICS)  max=  3.75800546409761E-01
DEBUG_STATS_RL:                  Gv (DYNAMICS) mean= -4.10262129550780E-04
DEBUG_STATS_RL:                  Gv (DYNAMICS) S.D.=  2.24701977303399E-02
DEBUG_STATS_RL:               GuNm1 (DYNAMICS)  min= -2.54017720024060E-05
DEBUG_STATS_RL:               GuNm1 (DYNAMICS)  max=  2.14767538702210E-05
DEBUG_STATS_RL:               GuNm1 (DYNAMICS) mean= -8.81257679032590E-09
DEBUG_STATS_RL:               GuNm1 (DYNAMICS) S.D.=  1.16275555120475E-06
DEBUG_STATS_RL:               GvNm1 (DYNAMICS)  min= -1.98200918819563E-05
DEBUG_STATS_RL:               GvNm1 (DYNAMICS)  max=  3.61477224947112E-05
DEBUG_STATS_RL:               GvNm1 (DYNAMICS) mean=  3.17605279631493E-08
DEBUG_STATS_RL:               GvNm1 (DYNAMICS) S.D.=  1.07690978157480E-06
DEBUG_STATS_RL:               GtNm1 (DYNAMICS)  min= -3.11507972270090E-06
DEBUG_STATS_RL:               GtNm1 (DYNAMICS)  max=  3.78677730363089E-06
DEBUG_STATS_RL:               GtNm1 (DYNAMICS) mean=  9.74684444357002E-10
DEBUG_STATS_RL:               GtNm1 (DYNAMICS) S.D.=  5.88124609632434E-08
DEBUG_STATS_RL:               GsNm1 (DYNAMICS)  min= -1.33402693245600E-05
DEBUG_STATS_RL:               GsNm1 (DYNAMICS)  max=  2.59082680701664E-06
DEBUG_STATS_RL:               GsNm1 (DYNAMICS) mean= -3.76773152807805E-09
DEBUG_STATS_RL:               GsNm1 (DYNAMICS) S.D.=  1.47323085550480E-07
(PID.TID 0000.0001) DEBUG_MSG: LEAVING S/R DYNAMICS
DEBUG_STATS_RL:    cg2d_b (SOLVE_FOR_PRESSURE)  min= -1.55847150328093E+05
DEBUG_STATS_RL:    cg2d_b (SOLVE_FOR_PRESSURE)  max=  5.86611109387899E+04
DEBUG_STATS_RL:    cg2d_b (SOLVE_FOR_PRESSURE) mean= -4.92107025881942E+03
DEBUG_STATS_RL:    cg2d_b (SOLVE_FOR_PRESSURE) S.D.=  7.00215452080127E+03
 cg2d: Sum(rhs),rhsMax =  -1.39567072597676E+02  2.98549593362618E+01
(PID.TID 0000.0001)  cg2d: iter=     1 ; resid.=  3.02594355626864E-02
(PID.TID 0000.0001)  cg2d: iter=     2 ; resid.=  5.13961797671329E-03
(PID.TID 0000.0001)  cg2d: iter=     3 ; resid.=  1.65833548177564E-03
(PID.TID 0000.0001)  cg2d: iter=     4 ; resid.=  4.53493300450690E-04
(PID.TID 0000.0001)  cg2d: iter=     5 ; resid.=  9.84243340386024E-05
(PID.TID 0000.0001)  cg2d: iter=     6 ; resid.=  1.77692168949837E-05
(PID.TID 0000.0001)  cg2d: iter=     7 ; resid.=  3.69599406495333E-06
(PID.TID 0000.0001)  cg2d: iter=     8 ; resid.=  1.00429554633167E-06
(PID.TID 0000.0001)  cg2d: iter=     9 ; resid.=  3.24629736100926E-07
(PID.TID 0000.0001)  cg2d: iter=    10 ; resid.=  9.62199097268806E-08
DEBUG_STATS_RL:    cg2d_x (SOLVE_FOR_PRESSURE)  min= -6.73239230366749E+00
DEBUG_STATS_RL:    cg2d_x (SOLVE_FOR_PRESSURE)  max=  1.25562531518184E+01
DEBUG_STATS_RL:    cg2d_x (SOLVE_FOR_PRESSURE) mean=  4.77180771240355E-01
DEBUG_STATS_RL:    cg2d_x (SOLVE_FOR_PRESSURE) S.D.=  6.87928059676721E-01
(PID.TID 0000.0001)      cg2d_init_res =   1.99950118717721E-01
(PID.TID 0000.0001)      cg2d_iters(min,last) =      -1      10
(PID.TID 0000.0001)      cg2d_last_res =   9.62199097268806E-08
(PID.TID 0000.0001) DEBUG_MSG: CALLING S/R UPDATE_ETAH
(PID.TID 0000.0001) DEBUG_MSG: ENTERED S/R CALC_R_STAR
(PID.TID 0000.0001) DEBUG_MSG: LEAVING S/R CALC_R_STAR
(PID.TID 0000.0001) DEBUG_MSG: CALLING S/R DO_STAGGER_FIELDS_EXCH.
(PID.TID 0000.0001) DEBUG_MSG: CALLING S/R THERMODYNAMICS
(PID.TID 0000.0001) DEBUG_MSG: ENTERED S/R THERMODYNAMICS
(PID.TID 0000.0001) DEBUG_MSG: CALLING S/R TEMP_INTEGRATE
(PID.TID 0000.0001) DEBUG_MSG: CALLING S/R SALT_INTEGRATE
DEBUG_STATS_RL:          Uvel (THERMODYNAMICS)  min= -4.78646711572204E-01
DEBUG_STATS_RL:          Uvel (THERMODYNAMICS)  max=  2.46087951988992E-01
DEBUG_STATS_RL:          Uvel (THERMODYNAMICS) mean= -9.49928275949069E-04
DEBUG_STATS_RL:          Uvel (THERMODYNAMICS) S.D.=  2.01638916406106E-02
DEBUG_STATS_RL:          Vvel (THERMODYNAMICS)  min= -4.09661191589264E-01
DEBUG_STATS_RL:          Vvel (THERMODYNAMICS)  max=  3.75108052074607E-01
DEBUG_STATS_RL:          Vvel (THERMODYNAMICS) mean= -4.07946107004926E-04
DEBUG_STATS_RL:          Vvel (THERMODYNAMICS) S.D.=  2.24957311538681E-02
DEBUG_STATS_RL:          Wvel (THERMODYNAMICS)  min= -9.24004267525401E-05
DEBUG_STATS_RL:          Wvel (THERMODYNAMICS)  max=  1.16131951150284E-04
DEBUG_STATS_RL:          Wvel (THERMODYNAMICS) mean= -2.35749978020673E-07
DEBUG_STATS_RL:          Wvel (THERMODYNAMICS) S.D.=  6.06056266292848E-06
DEBUG_STATS_RL:         Theta (THERMODYNAMICS)  min=  1.60687073062514E+01
DEBUG_STATS_RL:         Theta (THERMODYNAMICS)  max=  2.41844044786404E+01
DEBUG_STATS_RL:         Theta (THERMODYNAMICS) mean=  2.00057405467043E+01
DEBUG_STATS_RL:         Theta (THERMODYNAMICS) S.D.=  1.06659871241921E-01
DEBUG_STATS_RL:          Salt (THERMODYNAMICS)  min=  2.27777597414763E+01
DEBUG_STATS_RL:          Salt (THERMODYNAMICS)  max=  3.51509785786083E+01
DEBUG_STATS_RL:          Salt (THERMODYNAMICS) mean=  3.49965134449126E+01
DEBUG_STATS_RL:          Salt (THERMODYNAMICS) S.D.=  1.41120300342979E-01
DEBUG_STATS_RL:         GtNm1 (THERMODYNAMICS)  min= -3.11917974565542E-06
DEBUG_STATS_RL:         GtNm1 (THERMODYNAMICS)  max=  3.74111222650485E-06
DEBUG_STATS_RL:         GtNm1 (THERMODYNAMICS) mean=  9.19995816750486E-10
DEBUG_STATS_RL:         GtNm1 (THERMODYNAMICS) S.D.=  5.72457853314154E-08
DEBUG_STATS_RL:         GsNm1 (THERMODYNAMICS)  min= -1.32495613323944E-05
DEBUG_STATS_RL:         GsNm1 (THERMODYNAMICS)  max=  2.59554620798280E-06
DEBUG_STATS_RL:         GsNm1 (THERMODYNAMICS) mean= -3.73298961753536E-09
DEBUG_STATS_RL:         GsNm1 (THERMODYNAMICS) S.D.=  1.46252693305050E-07
(PID.TID 0000.0001) DEBUG_MSG: LEAVING S/R THERMODYNAMICS
(PID.TID 0000.0001) // =======================================================
(PID.TID 0000.0001) // Begin MONITOR dynamic field statistics
(PID.TID 0000.0001) // =======================================================
(PID.TID 0000.0001) %MON time_tsnumber                =                    96
(PID.TID 0000.0001) %MON time_secondsf                =   8.6400000000000E+04
(PID.TID 0000.0001) %MON dynstat_eta_max              =   1.2799442566185E+00
(PID.TID 0000.0001) %MON dynstat_eta_min              =  -6.8627852404506E-01
(PID.TID 0000.0001) %MON dynstat_eta_mean             =   4.8417306608297E-02
(PID.TID 0000.0001) %MON dynstat_eta_sd               =   6.6756452300884E-02
(PID.TID 0000.0001) %MON dynstat_eta_del2             =   1.0452548264198E-03
(PID.TID 0000.0001) %MON dynstat_uvel_max             =   2.4608795198899E-01
(PID.TID 0000.0001) %MON dynstat_uvel_min             =  -4.7864671157220E-01
(PID.TID 0000.0001) %MON dynstat_uvel_mean            =  -1.7189199178265E-04
(PID.TID 0000.0001) %MON dynstat_uvel_sd              =   6.6378928307559E-03
(PID.TID 0000.0001) %MON dynstat_uvel_del2            =   9.1571531831859E-05
(PID.TID 0000.0001) %MON dynstat_vvel_max             =   3.7510805207461E-01
(PID.TID 0000.0001) %MON dynstat_vvel_min             =  -4.0966119158926E-01
(PID.TID 0000.0001) %MON dynstat_vvel_mean            =   4.0737000334458E-04
(PID.TID 0000.0001) %MON dynstat_vvel_sd              =   7.3718575781845E-03
(PID.TID 0000.0001) %MON dynstat_vvel_del2            =   9.1385214472698E-05
(PID.TID 0000.0001) %MON dynstat_wvel_max             =   1.1613195115028E-04
(PID.TID 0000.0001) %MON dynstat_wvel_min             =  -9.2400426752540E-05
(PID.TID 0000.0001) %MON dynstat_wvel_mean            =  -9.7201735270725E-08
(PID.TID 0000.0001) %MON dynstat_wvel_sd              =   5.8288461789105E-06
(PID.TID 0000.0001) %MON dynstat_wvel_del2            =   6.3713357478567E-08
(PID.TID 0000.0001) %MON dynstat_theta_max            =   2.4184404478640E+01
(PID.TID 0000.0001) %MON dynstat_theta_min            =   1.6068707306251E+01
(PID.TID 0000.0001) %MON dynstat_theta_mean           =   1.9997939150535E+01
(PID.TID 0000.0001) %MON dynstat_theta_sd             =   3.5043336586403E-02
(PID.TID 0000.0001) %MON dynstat_theta_del2           =   5.9006312845487E-04
(PID.TID 0000.0001) %MON dynstat_salt_max             =   3.5150978578608E+01
(PID.TID 0000.0001) %MON dynstat_salt_min             =   2.2777759741476E+01
(PID.TID 0000.0001) %MON dynstat_salt_mean            =   3.4999545370968E+01
(PID.TID 0000.0001) %MON dynstat_salt_sd              =   4.3549774840483E-02
(PID.TID 0000.0001) %MON dynstat_salt_del2            =   1.4834930319522E-03
(PID.TID 0000.0001) %MON dynstat_sst_max              =   2.4184404478640E+01
(PID.TID 0000.0001) %MON dynstat_sst_min              =   1.6068707306251E+01
(PID.TID 0000.0001) %MON dynstat_sst_mean             =   2.0180151274270E+01
(PID.TID 0000.0001) %MON dynstat_sst_sd               =   3.2902095773630E-01
(PID.TID 0000.0001) %MON dynstat_sst_del2             =   7.0577418151405E-03
(PID.TID 0000.0001) %MON dynstat_sss_max              =   3.5150978578608E+01
(PID.TID 0000.0001) %MON dynstat_sss_min              =   2.2777759741476E+01
(PID.TID 0000.0001) %MON dynstat_sss_mean             =   3.4958561819234E+01
(PID.TID 0000.0001) %MON dynstat_sss_sd               =   5.2496611241070E-01
(PID.TID 0000.0001) %MON dynstat_sss_del2             =   2.0074115486657E-02
(PID.TID 0000.0001) %MON forcing_qnet_max             =   4.0831808791631E+03
(PID.TID 0000.0001) %MON forcing_qnet_min             =  -2.1424279785156E+03
(PID.TID 0000.0001) %MON forcing_qnet_mean            =  -1.9014842553169E+01
(PID.TID 0000.0001) %MON forcing_qnet_sd              =   4.3698633603245E+02
(PID.TID 0000.0001) %MON forcing_qnet_del2            =   4.9212850855644E+00
(PID.TID 0000.0001) %MON forcing_qsw_max              =   0.0000000000000E+00
(PID.TID 0000.0001) %MON forcing_qsw_min              =  -1.0438888653761E+02
(PID.TID 0000.0001) %MON forcing_qsw_mean             =  -2.2523227759212E+01
(PID.TID 0000.0001) %MON forcing_qsw_sd               =   3.0626760068311E+01
(PID.TID 0000.0001) %MON forcing_qsw_del2             =   2.4538328141147E-01
(PID.TID 0000.0001) %MON forcing_empmr_max            =   4.1493903845549E-03
(PID.TID 0000.0001) %MON forcing_empmr_min            =  -5.9613738209009E-02
(PID.TID 0000.0001) %MON forcing_empmr_mean           =  -3.2485821065252E-04
(PID.TID 0000.0001) %MON forcing_empmr_sd             =   2.6783439012109E-03
(PID.TID 0000.0001) %MON forcing_empmr_del2           =   1.0383062981366E-04
(PID.TID 0000.0001) %MON forcing_fu_max               =   4.6281454990015E-01
(PID.TID 0000.0001) %MON forcing_fu_min               =  -5.8314308771589E-01
(PID.TID 0000.0001) %MON forcing_fu_mean              =  -2.6947650053364E-03
(PID.TID 0000.0001) %MON forcing_fu_sd                =   7.7613336597596E-02
(PID.TID 0000.0001) %MON forcing_fu_del2              =   6.5855274825398E-04
(PID.TID 0000.0001) %MON forcing_fv_max               =   3.2322158365939E-01
(PID.TID 0000.0001) %MON forcing_fv_min               =  -3.3398400758285E-01
(PID.TID 0000.0001) %MON forcing_fv_mean              =  -6.9205675515797E-03
(PID.TID 0000.0001) %MON forcing_fv_sd                =   7.0911784256991E-02
(PID.TID 0000.0001) %MON forcing_fv_del2              =   5.4817843659092E-04
(PID.TID 0000.0001) %MON trAdv_CFL_u_max              =   1.7996742135247E-03
(PID.TID 0000.0001) %MON trAdv_CFL_v_max              =   1.4051510342875E-03
(PID.TID 0000.0001) %MON trAdv_CFL_w_max              =   2.0284623953213E-03
(PID.TID 0000.0001) %MON advcfl_uvel_max              =   1.3709177124307E-03
(PID.TID 0000.0001) %MON advcfl_vvel_max              =   1.3524195102300E-03
(PID.TID 0000.0001) %MON advcfl_wvel_max              =   4.1470426580180E-03
(PID.TID 0000.0001) %MON advcfl_W_hf_max              =   2.3714675184967E-03
(PID.TID 0000.0001) %MON pe_b_mean                    =   9.0596167543118E-06
(PID.TID 0000.0001) %MON ke_max                       =   1.0805730457210E-01
(PID.TID 0000.0001) %MON ke_mean                      =   4.5547589187544E-05
(PID.TID 0000.0001) %MON ke_vol                       =   1.3398199609858E+18
(PID.TID 0000.0001) %MON vort_r_min                   =  -2.5228379641306E-06
(PID.TID 0000.0001) %MON vort_r_max                   =   2.5378309627476E-06
(PID.TID 0000.0001) %MON vort_a_mean                  =  -2.0549865324846E-05
(PID.TID 0000.0001) %MON vort_a_sd                    =   7.5259406321082E-05
(PID.TID 0000.0001) %MON vort_p_mean                  =  -2.4783196437733E-05
(PID.TID 0000.0001) %MON vort_p_sd                    =   1.2810500034453E-04
(PID.TID 0000.0001) %MON surfExpan_theta_mean         =  -3.4107137985484E-07
(PID.TID 0000.0001) %MON surfExpan_salt_mean          =   1.2825678609282E-06
(PID.TID 0000.0001) // =======================================================
(PID.TID 0000.0001) // End MONITOR dynamic field statistics
(PID.TID 0000.0001) // =======================================================
(PID.TID 0000.0001)  MDS_WRITE_FIELD: it,rec,kS,kL,kH=      96     1  16   1  16 file=U.0000000096
(PID.TID 0000.0001)  MDS_WRITE_FIELD: it,rec,kS,kL,kH=      96     1  16   1  16 file=V.0000000096
(PID.TID 0000.0001)  MDS_WRITE_FIELD: it,rec,kS,kL,kH=      96     1  16   1  16 file=T.0000000096
(PID.TID 0000.0001)  MDS_WRITE_FIELD: it,rec,kS,kL,kH=      96     1  16   1  16 file=S.0000000096
(PID.TID 0000.0001)  MDS_WRITE_FIELD: it,rec,kS,kL,kH=      96     1   1   1   1 file=Eta.0000000096
(PID.TID 0000.0001)  MDS_WRITE_FIELD: it,rec,kS,kL,kH=      96     1  16   1  16 file=W.0000000096
(PID.TID 0000.0001)  MDS_WRITE_FIELD: it,rec,kS,kL,kH=      96     1  16   1  16 file=PH.0000000096
(PID.TID 0000.0001)  MDS_WRITE_FIELD: it,rec,kS,kL,kH=      96     1   1   1   1 file=PHL.0000000096
(PID.TID 0000.0001)  MDS_WRITE_FIELD: it,rec,kS,kL,kH=      96    -1  16   1  16 file=pickup.ckptA
(PID.TID 0000.0001)  MDS_WRITE_FIELD: it,rec,kS,kL,kH=      96    -2  16   1  16 file=pickup.ckptA
(PID.TID 0000.0001)  MDS_WRITE_FIELD: it,rec,kS,kL,kH=      96    -3  16   1  16 file=pickup.ckptA
(PID.TID 0000.0001)  MDS_WRITE_FIELD: it,rec,kS,kL,kH=      96    -4  16   1  16 file=pickup.ckptA
(PID.TID 0000.0001)  MDS_WRITE_FIELD: it,rec,kS,kL,kH=      96    -5  16   1  16 file=pickup.ckptA
(PID.TID 0000.0001)  MDS_WRITE_FIELD: it,rec,kS,kL,kH=      96    -6  16   1  16 file=pickup.ckptA
(PID.TID 0000.0001)  MDS_WRITE_FIELD: it,rec,kS,kL,kH=      96    -7  16   1  16 file=pickup.ckptA
(PID.TID 0000.0001)  MDS_WRITE_FIELD: it,rec,kS,kL,kH=      96    -8  16   1  16 file=pickup.ckptA
(PID.TID 0000.0001)  MDS_WRITE_FIELD: it,rec,kS,kL,kH=      96  -129   1   1   1 file=pickup.ckptA
(PID.TID 0000.0001)  MDS_WRITE_FIELD: it,rec,kS,kL,kH=      96  -130   1   1   1 file=pickup.ckptA
(PID.TID 0000.0001)  MDS_WRITE_FIELD: it,rec,kS,kL,kH=      96  -131   1   1   1 file=pickup.ckptA
(PID.TID 0000.0001) %CHECKPOINT        96 ckptA
(PID.TID 0000.0001) DEBUG_MSG: LEAVING S/R FORWARD_STEP
