(PID.TID 0000.0001) 
(PID.TID 0000.0001) // ======================================================
(PID.TID 0000.0001) //                      MITgcm UV
(PID.TID 0000.0001) //                      =========
(PID.TID 0000.0001) // ======================================================
(PID.TID 0000.0001) // execution environment starting up...
(PID.TID 0000.0001) 
(PID.TID 0000.0001) // MITgcmUV version:  checkpoint67f
(PID.TID 0000.0001) // Build user:        heracles
(PID.TID 0000.0001) // Build host:        heracles
(PID.TID 0000.0001) // Build date:        Mon Dec  3 17:54:51 EST 2018
(PID.TID 0000.0001) 
(PID.TID 0000.0001) // =======================================================
(PID.TID 0000.0001) // Execution Environment parameter file "eedata"
(PID.TID 0000.0001) // =======================================================
(PID.TID 0000.0001) ># Example "eedata" file
(PID.TID 0000.0001) ># Lines beginning "#" are comments
(PID.TID 0000.0001) ># nTx - No. threads per process in X
(PID.TID 0000.0001) ># nTy - No. threads per process in Y
(PID.TID 0000.0001) > &EEPARMS
(PID.TID 0000.0001) > useCubedSphereExchange=.TRUE.,
(PID.TID 0000.0001) > nTx=1,
(PID.TID 0000.0001) > nTy=1,
(PID.TID 0000.0001) >#debugMode=.TRUE.,
(PID.TID 0000.0001) > /
(PID.TID 0000.0001) ># Note: Some systems use & as the namelist terminator (as shown here).
(PID.TID 0000.0001) >#       Other systems use a / character.
(PID.TID 0000.0001) 
(PID.TID 0000.0001) // =======================================================
(PID.TID 0000.0001) // Computational Grid Specification ( see files "SIZE.h" )
(PID.TID 0000.0001) //                                  ( and "eedata"       )
(PID.TID 0000.0001) // =======================================================
(PID.TID 0000.0001)      nPx =    6 ; /* No. processes in X */
(PID.TID 0000.0001)      nPy =    1 ; /* No. processes in Y */
(PID.TID 0000.0001)      nSx =    1 ; /* No. tiles in X per process */
(PID.TID 0000.0001)      nSy =    1 ; /* No. tiles in Y per process */
(PID.TID 0000.0001)      sNx =   32 ; /* Tile size in X */
(PID.TID 0000.0001)      sNy =   32 ; /* Tile size in Y */
(PID.TID 0000.0001)      OLx =    4 ; /* Tile overlap distance in X */
(PID.TID 0000.0001)      OLy =    4 ; /* Tile overlap distance in Y */
(PID.TID 0000.0001)      nTx =    1 ; /* No. threads in X per process */
(PID.TID 0000.0001)      nTy =    1 ; /* No. threads in Y per process */
(PID.TID 0000.0001)       Nr =   15 ; /* No. levels in the vertical   */
(PID.TID 0000.0001)       Nx =  192 ; /* Total domain size in X ( = nPx*nSx*sNx ) */
(PID.TID 0000.0001)       Ny =   32 ; /* Total domain size in Y ( = nPy*nSy*sNy ) */
(PID.TID 0000.0001)   nTiles =    1 ; /* Total no. tiles per process ( = nSx*nSy ) */
(PID.TID 0000.0001)   nProcs =    6 ; /* Total no. processes ( = nPx*nPy ) */
(PID.TID 0000.0001) nThreads =    1 ; /* Total no. threads per process ( = nTx*nTy ) */
(PID.TID 0000.0001) usingMPI =    T ; /* Flag used to control whether MPI is in use */
(PID.TID 0000.0001)                   /*  note: To execute a program with MPI calls */
(PID.TID 0000.0001)                   /*  it must be launched appropriately e.g     */
(PID.TID 0000.0001)                   /*  "mpirun -np 64 ......"                    */
(PID.TID 0000.0001) useCoupler=    F ;/* Flag used to control communications with   */
(PID.TID 0000.0001)                   /*  other model components, through a coupler */
(PID.TID 0000.0001) useNest2W_parent =    F ;/* Control 2-W Nesting comm */
(PID.TID 0000.0001) useNest2W_child  =    F ;/* Control 2-W Nesting comm */
(PID.TID 0000.0001) debugMode =    F ; /* print debug msg. (sequence of S/R calls)  */
(PID.TID 0000.0001) printMapIncludesZeros=    F ; /* print zeros in Std.Output maps */
(PID.TID 0000.0001) maxLengthPrt1D=   65 /* maxLength of 1D array printed to StdOut */
(PID.TID 0000.0001) 
(PID.TID 0000.0001) ======= Starting MPI parallel Run =========
(PID.TID 0000.0001)  My Processor Name (len:  8 ) = heracles
(PID.TID 0000.0001)  Located at (  0,  0) on processor grid (0:  5,0:  0)
(PID.TID 0000.0001)  Origin at  (     1,     1) on global grid (1:   192,1:    32)
(PID.TID 0000.0001)  North neighbor = processor 0000
(PID.TID 0000.0001)  South neighbor = processor 0000
(PID.TID 0000.0001)   East neighbor = processor 0001
(PID.TID 0000.0001)   West neighbor = processor 0005
(PID.TID 0000.0001) // ======================================================
(PID.TID 0000.0001) // Mapping of tiles to threads
(PID.TID 0000.0001) // ======================================================
(PID.TID 0000.0001) // -o- Thread   1, tiles (   1:   1,   1:   1)
(PID.TID 0000.0001) 
(PID.TID 0000.0001) W2_READPARMS: file data.exch2 not found
(PID.TID 0000.0001) => use W2_EXCH2 default: regular 6-facets Cube
(PID.TID 0000.0001) W2_useE2ioLayOut=    T ;/* T: use Exch2 glob IO map; F: use model default */
(PID.TID 0000.0001) W2_mapIO        =  -1 ; /* select option for Exch2 global-IO map */
(PID.TID 0000.0001) W2_printMsg     =  -1 ; /* select option for printing information */
(PID.TID 0000.0001) ===== Start setting W2 TOPOLOGY:
(PID.TID 0000.0001)  write to log-file: w2_tile_topology.0000.log
(PID.TID 0000.0001) =====       setting W2 TOPOLOGY: Done
(PID.TID 0000.0001) 
(PID.TID 0000.0001)  INI_PARMS: opening model parameter file "data"
(PID.TID 0000.0001)  OPEN_COPY_DATA_FILE: opening file data
(PID.TID 0000.0001) // =======================================================
(PID.TID 0000.0001) // Parameter file "data"
(PID.TID 0000.0001) // =======================================================
(PID.TID 0000.0001) ># ====================
(PID.TID 0000.0001) ># | Model parameters |
(PID.TID 0000.0001) ># ====================
(PID.TID 0000.0001) >#
(PID.TID 0000.0001) ># Continuous equation parameters
(PID.TID 0000.0001) > &PARM01
(PID.TID 0000.0001) > tRef=15*20.,
(PID.TID 0000.0001) > sRef=15*35.,
(PID.TID 0000.0001) > viscAh =3.E5,
(PID.TID 0000.0001) > viscAr =1.E-3,
(PID.TID 0000.0001) > diffKrT=3.E-5,
(PID.TID 0000.0001) > diffKrS=3.E-5,
(PID.TID 0000.0001) > ivdc_kappa=10.,
(PID.TID 0000.0001) > implicitDiffusion=.TRUE.,
(PID.TID 0000.0001) > rhonil=1035.,
(PID.TID 0000.0001) > rhoConstFresh=1000.,
(PID.TID 0000.0001) > eosType='JMD95Z',
(PID.TID 0000.0001) > staggerTimeStep=.TRUE.,
(PID.TID 0000.0001) > vectorInvariantMomentum=.TRUE.,
(PID.TID 0000.0001) > implicitFreeSurface=.TRUE.,
(PID.TID 0000.0001) > exactConserv=.TRUE.,
(PID.TID 0000.0001) > select_rStar=2,
(PID.TID 0000.0001) > nonlinFreeSurf=4,
(PID.TID 0000.0001) > useRealFreshWaterFlux=.TRUE.,
(PID.TID 0000.0001) >#allowFreezing=.TRUE.,
(PID.TID 0000.0001) > hFacMin=.1,
(PID.TID 0000.0001) > hFacMinDr=20.,
(PID.TID 0000.0001) > readBinaryPrec=64,
(PID.TID 0000.0001) > useSingleCpuIo=.TRUE.,
(PID.TID 0000.0001) > debugLevel=2,
(PID.TID 0000.0001) > /
(PID.TID 0000.0001) >
(PID.TID 0000.0001) ># Elliptic solver parameters
(PID.TID 0000.0001) > &PARM02
(PID.TID 0000.0001) > /
(PID.TID 0000.0001) >
(PID.TID 0000.0001) ># Time stepping parameters
(PID.TID 0000.0001) > &PARM03
(PID.TID 0000.0001) > nIter0           = 0,
(PID.TID 0000.0001) > nTimeSteps       = 96,
(PID.TID 0000.0001) > deltaT           = 900.,
(PID.TID 0000.0001) > monitorFreq      = 1.,
(PID.TID 0000.0001) > abEps            = 0.1,
(PID.TID 0000.0001) > tracForcingOutAB = 1,
(PID.TID 0000.0001) > pickupStrictlyMatch=.FALSE.,
(PID.TID 0000.0001) > /
(PID.TID 0000.0001) >
(PID.TID 0000.0001) ># Gridding parameters
(PID.TID 0000.0001) > &PARM04
(PID.TID 0000.0001) > usingCurvilinearGrid=.TRUE.,
(PID.TID 0000.0001) > horizGridFile='grid_cs32',
(PID.TID 0000.0001) > delR= 50., 70., 100., 140., 190.,
(PID.TID 0000.0001) >       240., 290., 340., 390., 440.,
(PID.TID 0000.0001) >       490., 540., 590., 640., 690.,
(PID.TID 0000.0001) > /
(PID.TID 0000.0001) >
(PID.TID 0000.0001) ># Input datasets
(PID.TID 0000.0001) > &PARM05
(PID.TID 0000.0001) > bathyFile      ='bathy_Hmin50.bin',
(PID.TID 0000.0001) > /
(PID.TID 0000.0001) 
(PID.TID 0000.0001)  INI_PARMS ; starts to read PARM01
(PID.TID 0000.0001)  INI_PARMS ; read PARM01 : OK
(PID.TID 0000.0001)  INI_PARMS ; starts to read PARM02
(PID.TID 0000.0001)  INI_PARMS ; read PARM02 : OK
(PID.TID 0000.0001)  INI_PARMS ; starts to read PARM03
(PID.TID 0000.0001)  INI_PARMS ; read PARM03 : OK
(PID.TID 0000.0001)  INI_PARMS ; starts to read PARM04
(PID.TID 0000.0001)  INI_PARMS ; read PARM04 : OK
(PID.TID 0000.0001)  INI_PARMS ; starts to read PARM05
(PID.TID 0000.0001)  INI_PARMS ; read PARM05 : OK
(PID.TID 0000.0001)  INI_PARMS: finished reading file "data"
(PID.TID 0000.0001)  PACKAGES_BOOT: opening data.pkg
(PID.TID 0000.0001)  OPEN_COPY_DATA_FILE: opening file data.pkg
(PID.TID 0000.0001) // =======================================================
(PID.TID 0000.0001) // Parameter file "data.pkg"
(PID.TID 0000.0001) // =======================================================
(PID.TID 0000.0001) ># Packages
(PID.TID 0000.0001) > &PACKAGES
(PID.TID 0000.0001) > useGMRedi=.TRUE.,
(PID.TID 0000.0001) > useSEAICE=.TRUE.,
(PID.TID 0000.0001) > useDiagnostics=.TRUE.,
(PID.TID 0000.0001) > /
(PID.TID 0000.0001) 
(PID.TID 0000.0001)  PACKAGES_BOOT: finished reading data.pkg
(PID.TID 0000.0001)  PACKAGES_BOOT: On/Off package Summary
 --------  pkgs with a standard "usePKG" On/Off switch in "data.pkg":  --------
 pkg/gmredi               compiled   and   used ( useGMRedi                = T )
 pkg/seaice               compiled   and   used ( useSEAICE                = T )
 pkg/diagnostics          compiled   and   used ( useDiagnostics           = T )
 -------- pkgs without standard "usePKG" On/Off switch in "data.pkg":  --------
 pkg/generic_advdiff      compiled   and   used ( useGAD                   = T )
 pkg/mom_common           compiled   and   used ( momStepping              = T )
 pkg/mom_vecinv           compiled   and   used ( +vectorInvariantMomentum = T )
 pkg/mom_fluxform         compiled but not used ( & not vectorInvariantMom = F )
 pkg/monitor              compiled   and   used ( monitorFreq > 0.         = T )
 pkg/timeave              compiled but not used ( taveFreq > 0.            = F )
 pkg/debug                compiled but not used ( debugMode                = F )
 pkg/exch2                compiled   and   used
 pkg/rw                   compiled   and   used
 pkg/mdsio                compiled   and   used
(PID.TID 0000.0001)  PACKAGES_BOOT: End of package Summary
(PID.TID 0000.0001) 
(PID.TID 0000.0001)  GM_READPARMS: opening data.gmredi
(PID.TID 0000.0001)  OPEN_COPY_DATA_FILE: opening file data.gmredi
(PID.TID 0000.0001) // =======================================================
(PID.TID 0000.0001) // Parameter file "data.gmredi"
(PID.TID 0000.0001) // =======================================================
(PID.TID 0000.0001) ># GM+Redi package parameters:
(PID.TID 0000.0001) >
(PID.TID 0000.0001) >#-from MOM :
(PID.TID 0000.0001) ># GM_background_K: 	G & Mc.W  diffusion coefficient
(PID.TID 0000.0001) ># GM_maxSlope    :	max slope of isopycnals
(PID.TID 0000.0001) ># GM_Scrit       :	transition for scaling diffusion coefficient
(PID.TID 0000.0001) ># GM_Sd          :	half width scaling for diffusion coefficient
(PID.TID 0000.0001) ># GM_taper_scheme:	slope clipping or one of the tapering schemes
(PID.TID 0000.0001) ># GM_Kmin_horiz  :	horizontal diffusion minimum value
(PID.TID 0000.0001) >
(PID.TID 0000.0001) >#-Option parameters (needs to "define" options in GMREDI_OPTIONS.h")
(PID.TID 0000.0001) ># GM_isopycK     :	isopycnal diffusion coefficient (default=GM_background_K)
(PID.TID 0000.0001) ># GM_AdvForm     :	turn on GM Advective form       (default=Skew flux form)
(PID.TID 0000.0001) >
(PID.TID 0000.0001) > &GM_PARM01
(PID.TID 0000.0001) >  GM_background_K    = 800.,
(PID.TID 0000.0001) >  GM_taper_scheme    = 'gkw91',
(PID.TID 0000.0001) >  GM_maxSlope        = 1.e-2,
(PID.TID 0000.0001) >  GM_Kmin_horiz      = 50.,
(PID.TID 0000.0001) >  GM_Scrit           = 4.e-3,
(PID.TID 0000.0001) >  GM_Sd              = 1.e-3,
(PID.TID 0000.0001) ># GM_Visbeck_alpha   = 0.,
(PID.TID 0000.0001) ># GM_Visbeck_length  = 2.e+5,
(PID.TID 0000.0001) ># GM_Visbeck_depth   = 1.e+3,
(PID.TID 0000.0001) ># GM_Visbeck_maxval_K= 2.5e+3,
(PID.TID 0000.0001) > /
(PID.TID 0000.0001) >
(PID.TID 0000.0001) 
(PID.TID 0000.0001)  GM_READPARMS: finished reading data.gmredi
(PID.TID 0000.0001) 
(PID.TID 0000.0001)  SEAICE_READPARMS: opening data.seaice
(PID.TID 0000.0001)  OPEN_COPY_DATA_FILE: opening file data.seaice
(PID.TID 0000.0001) // =======================================================
(PID.TID 0000.0001) // Parameter file "data.seaice"
(PID.TID 0000.0001) // =======================================================
(PID.TID 0000.0001) ># SEAICE parameters
(PID.TID 0000.0001) > &SEAICE_PARM01
(PID.TID 0000.0001) > usePW79thermodynamics= .FALSE.,
(PID.TID 0000.0001) ># SEAICEuseDYNAMICS = .FALSE.,
(PID.TID 0000.0001) >  SEAICEupdateOceanStress=.FALSE.,
(PID.TID 0000.0001) ># SEAICEadvHeff  = .FALSE.,
(PID.TID 0000.0001) ># SEAICEadvArea  = .FALSE.,
(PID.TID 0000.0001) ># SEAICEadvSnow  = .FALSE.,
(PID.TID 0000.0001) ># SEAICEadvSalt  = .FALSE.,
(PID.TID 0000.0001) >#--
(PID.TID 0000.0001) > SEAICE_strength    = 2.6780e+04,
(PID.TID 0000.0001) > OCEAN_drag         = 8.1541e-04,
(PID.TID 0000.0001) ># SEAICE_waterDrag   = 5.3508,
(PID.TID 0000.0001) >#- waterDrag no longer includes rhoConst factor:
(PID.TID 0000.0001) ># SEAICE_waterDrag   = 5.16985507246376811E-3,
(PID.TID 0000.0001) >  SEAICE_waterDrag   = 5.169855072463768E-3,
(PID.TID 0000.0001) >#- old defaults
(PID.TID 0000.0001) >  SEAICEscaleSurfStress = .FALSE.,
(PID.TID 0000.0001) >  SEAICEaddSnowMass     = .FALSE.,
(PID.TID 0000.0001) >  SEAICE_useMultDimSnow = .FALSE.,
(PID.TID 0000.0001) >  SEAICE_Olx = 0,
(PID.TID 0000.0001) >  SEAICE_Oly = 0,
(PID.TID 0000.0001) >  SEAICEetaZmethod = 0,
(PID.TID 0000.0001) >  SEAICE_drag = 2.E-3,
(PID.TID 0000.0001) >#--
(PID.TID 0000.0001) > SEAICE_no_Slip     = .FALSE.,
(PID.TID 0000.0001) > LSR_ERROR          = 1.E-4,
(PID.TID 0000.0001) > SEAICElinearIterMax=  500,
(PID.TID 0000.0001) >#LSR_mixIniGuess    = 1,
(PID.TID 0000.0001) > SEAICEadvScheme    = 77,
(PID.TID 0000.0001) > SEAICEwriteState   = .TRUE.,
(PID.TID 0000.0001) >#SEAICE_monFreq = 1800.,
(PID.TID 0000.0001) ># AreaFile  = 'const100.bin',
(PID.TID 0000.0001) ># HeffFile  = 'const+20.bin',
(PID.TID 0000.0001) ># HsnowFile = 'const_00.bin',
(PID.TID 0000.0001) > /
(PID.TID 0000.0001) >
(PID.TID 0000.0001) > &SEAICE_PARM03
(PID.TID 0000.0001) > /
(PID.TID 0000.0001) 
(PID.TID 0000.0001)  SEAICE_READPARMS: finished reading data.seaice
(PID.TID 0000.0001)  DIAGNOSTICS_READPARMS: opening data.diagnostics
(PID.TID 0000.0001)  OPEN_COPY_DATA_FILE: opening file data.diagnostics
(PID.TID 0000.0001) // =======================================================
(PID.TID 0000.0001) // Parameter file "data.diagnostics"
(PID.TID 0000.0001) // =======================================================
(PID.TID 0000.0001) ># Diagnostic Package Choices
(PID.TID 0000.0001) >#--------------------
(PID.TID 0000.0001) >#  dumpAtLast (logical): always write output at the end of simulation (default=F)
(PID.TID 0000.0001) >#  diag_mnc   (logical): write to NetCDF files (default=useMNC)
(PID.TID 0000.0001) >#--for each output-stream:
(PID.TID 0000.0001) >#  fileName(n) : prefix of the output file name (max 80c long) for outp.stream n
(PID.TID 0000.0001) >#  frequency(n):< 0 : write snap-shot output every |frequency| seconds
(PID.TID 0000.0001) >#               > 0 : write time-average output every frequency seconds
(PID.TID 0000.0001) >#  timePhase(n)     : write at time = timePhase + multiple of |frequency|
(PID.TID 0000.0001) >#    averagingFreq  : frequency (in s) for periodic averaging interval
(PID.TID 0000.0001) >#    averagingPhase : phase     (in s) for periodic averaging interval
(PID.TID 0000.0001) >#    repeatCycle    : number of averaging intervals in 1 cycle
(PID.TID 0000.0001) >#  levels(:,n) : list of levels to write to file (Notes: declared as REAL)
(PID.TID 0000.0001) >#                when this entry is missing, select all common levels of this list
(PID.TID 0000.0001) >#  fields(:,n) : list of selected diagnostics fields (8.c) in outp.stream n
(PID.TID 0000.0001) >#                (see "available_diagnostics.log" file for the full list of diags)
(PID.TID 0000.0001) >#  missing_value(n) : missing value for real-type fields in output file "n"
(PID.TID 0000.0001) >#  fileFlags(n)     : specific code (8c string) for output file "n"
(PID.TID 0000.0001) >#--------------------
(PID.TID 0000.0001) ># This example dumps EXF diagnostics as snapshot after 10 time-steps
(PID.TID 0000.0001) ># Note: EXF air-sea fluxes over Sea-Ice are wrong
(PID.TID 0000.0001) > &DIAGNOSTICS_LIST
(PID.TID 0000.0001) >   dumpAtLast  = .TRUE.,
(PID.TID 0000.0001) >#--
(PID.TID 0000.0001) >    fields(1:10,1)  = 'oceQnet ','oceQsw  ','oceFWflx','oceSflux',
(PID.TID 0000.0001) >                      'oceTAUX ','oceTAUY ',
(PID.TID 0000.0001) >                      'THETA   ','SALT    ','UVEL    ', 'VVEL    ',
(PID.TID 0000.0001) >   fileName(1) = 'surfDiag',
(PID.TID 0000.0001) >  frequency(1) = 43200.,
(PID.TID 0000.0001) >
(PID.TID 0000.0001) >  fields(1:8,2)  = 'SIarea  ','SIheff  ','SIhsnow ','sIceLoad',
(PID.TID 0000.0001) >                   'SIuice  ','SIvice  ','SItaux  ','SItauy  ',
(PID.TID 0000.0001) >   fileName(2) = 'iceDiag',
(PID.TID 0000.0001) >  frequency(2) =  43200.,
(PID.TID 0000.0001) >  missing_value(2) = -999.,
(PID.TID 0000.0001) >
(PID.TID 0000.0001) >  fields(1:9,3)  = 'SIarea  ','SIheff  ','SIhsnow ','sIceLoad',
(PID.TID 0000.0001) >                   'SIuice  ','SIvice  ','SItaux  ','SItauy  ',
(PID.TID 0000.0001) >                   'CPLoWGHT',
(PID.TID 0000.0001) >   fileName(3) = 'iceInst',
(PID.TID 0000.0001) >  frequency(3) = -3600.,
(PID.TID 0000.0001) >  timePhase(3) =  0.,
(PID.TID 0000.0001) >  missing_value(3) = -999.,
(PID.TID 0000.0001) >
(PID.TID 0000.0001) >  fields(1:11,4) = 'SIareaN ','SIheffN ','SIhsnowN','SIqSnow ',
(PID.TID 0000.0001) >                   'SImeltPd','SItIces ','SIiceAge',
(PID.TID 0000.0001) >                   'SI_dArea','SI_dHeff','SI_dHsnw','SI_dQSnw',
(PID.TID 0000.0001) >#                  'SI_dMPnd',
(PID.TID 0000.0001) >#                  'SI_dTIce','SI_dIcAg',
(PID.TID 0000.0001) >   fileName(4) = 'iceNcat',
(PID.TID 0000.0001) >  frequency(4) = -3600.,
(PID.TID 0000.0001) >  timePhase(4) =  0.,
(PID.TID 0000.0001) >  fileFlags(4) = 'D       ',
(PID.TID 0000.0001) >
(PID.TID 0000.0001) >  fields(1:2,5)  = 'SIqIce  ',
(PID.TID 0000.0001) >                   'SI_dQIce',
(PID.TID 0000.0001) >   fileName(5) = 'iceEnerg',
(PID.TID 0000.0001) >  frequency(5) = -3600.,
(PID.TID 0000.0001) >  timePhase(5) =  0.,
(PID.TID 0000.0001) > /
(PID.TID 0000.0001) >
(PID.TID 0000.0001) >#--------------------
(PID.TID 0000.0001) ># Parameter for Diagnostics of per level statistics:
(PID.TID 0000.0001) >#--------------------
(PID.TID 0000.0001) >#  diagSt_mnc (logical): write stat-diags to NetCDF files (default=diag_mnc)
(PID.TID 0000.0001) >#  diagSt_regMaskFile : file containing the region-mask to read-in
(PID.TID 0000.0001) >#  nSetRegMskFile   : number of region-mask sets within the region-mask file
(PID.TID 0000.0001) >#  set_regMask(i)   : region-mask set-index that identifies the region "i"
(PID.TID 0000.0001) >#  val_regMask(i)   : region "i" identifier value in the region mask
(PID.TID 0000.0001) >#--for each output-stream:
(PID.TID 0000.0001) >#  stat_fName(n) : prefix of the output file name (max 80c long) for outp.stream n
(PID.TID 0000.0001) >#  stat_freq(n):< 0 : write snap-shot output every |stat_freq| seconds
(PID.TID 0000.0001) >#               > 0 : write time-average output every stat_freq seconds
(PID.TID 0000.0001) >#  stat_phase(n)    : write at time = stat_phase + multiple of |stat_freq|
(PID.TID 0000.0001) >#  stat_region(:,n) : list of "regions" (default: 1 region only=global)
(PID.TID 0000.0001) >#  stat_fields(:,n) : list of selected diagnostics fields (8.c) in outp.stream n
(PID.TID 0000.0001) >#                (see "available_diagnostics.log" file for the full list of diags)
(PID.TID 0000.0001) >#--------------------
(PID.TID 0000.0001) > &DIAG_STATIS_PARMS
(PID.TID 0000.0001) > stat_fields(1:21,1)  = 'SIarea  ','SIheff  ','SIhsnow ','sIceLoad',
(PID.TID 0000.0001) >                        'SIuice  ','SIvice  ','SItaux  ','SItauy  ',
(PID.TID 0000.0001) >                        'SIareaN ','SIheffN ','SIhsnowN',
(PID.TID 0000.0001) >                        'SIqSnow ','SIqIce  ','SImeltPd',
(PID.TID 0000.0001) >                        'SItIces ','SIiceAge',
(PID.TID 0000.0001) >                        'SI_dArea','SI_dHeff','SI_dHsnw',
(PID.TID 0000.0001) >                        'SI_dQSnw','SI_dQIce',
(PID.TID 0000.0001) >#                       'SI_dMPnd','SI_dTIce','SI_dIcAg',
(PID.TID 0000.0001) >  stat_fName(1) = 'iceStDiag',
(PID.TID 0000.0001) >   stat_freq(1) = 3600.,
(PID.TID 0000.0001) ># stat_phase(1) = 1800.,
(PID.TID 0000.0001) > /
(PID.TID 0000.0001) 
(PID.TID 0000.0001) S/R DIAGNOSTICS_READPARMS, read namelist "diagnostics_list": start
(PID.TID 0000.0001) S/R DIAGNOSTICS_READPARMS, read namelist "diagnostics_list": OK
(PID.TID 0000.0001) S/R DIAGNOSTICS_READPARMS, read namelist "DIAG_STATIS_PARMS": start
(PID.TID 0000.0001) S/R DIAGNOSTICS_READPARMS, read namelist "DIAG_STATIS_PARMS": OK
(PID.TID 0000.0001)  DIAGNOSTICS_READPARMS: global parameter summary:
(PID.TID 0000.0001)  dumpAtLast = /* always write time-ave diags at the end */
(PID.TID 0000.0001)                   T
(PID.TID 0000.0001)     ;
(PID.TID 0000.0001)  diag_mnc =   /* write NetCDF output files */
(PID.TID 0000.0001)                   F
(PID.TID 0000.0001)     ;
(PID.TID 0000.0001)  useMissingValue = /* put MissingValue where mask = 0 */
(PID.TID 0000.0001)                   F
(PID.TID 0000.0001)     ;
(PID.TID 0000.0001)  diagCG_maxIters = /* max number of iters in diag_cg2d */
(PID.TID 0000.0001)                     150
(PID.TID 0000.0001)     ;
(PID.TID 0000.0001)  diagCG_resTarget = /* residual target for diag_cg2d */
(PID.TID 0000.0001)                 1.000000000000000E-07
(PID.TID 0000.0001)     ;
(PID.TID 0000.0001)  diagCG_pcOffDFac = /* preconditioner off-diagonal factor */
(PID.TID 0000.0001)                 9.611687812379854E-01
(PID.TID 0000.0001)     ;
(PID.TID 0000.0001) -----------------------------------------------------
(PID.TID 0000.0001)  DIAGNOSTICS_READPARMS: active diagnostics summary:
(PID.TID 0000.0001) -----------------------------------------------------
(PID.TID 0000.0001) Creating Output Stream: surfDiag
(PID.TID 0000.0001) Output Frequency:      43200.000000 ; Phase:           0.000000
(PID.TID 0000.0001)  Averaging Freq.:      43200.000000 , Phase:           0.000000 , Cycle:   1
(PID.TID 0000.0001)  missing value: -9.990000000000E+02
(PID.TID 0000.0001)  Levels:    will be set later
(PID.TID 0000.0001)  Fields:    oceQnet  oceQsw   oceFWflx oceSflux oceTAUX  oceTAUY  THETA    SALT     UVEL     VVEL
(PID.TID 0000.0001) Creating Output Stream: iceDiag
(PID.TID 0000.0001) Output Frequency:      43200.000000 ; Phase:           0.000000
(PID.TID 0000.0001)  Averaging Freq.:      43200.000000 , Phase:           0.000000 , Cycle:   1
(PID.TID 0000.0001)  missing value: -9.990000000000E+02
(PID.TID 0000.0001)  Levels:    will be set later
(PID.TID 0000.0001)  Fields:    SIarea   SIheff   SIhsnow  sIceLoad SIuice   SIvice   SItaux   SItauy
(PID.TID 0000.0001) Creating Output Stream: iceInst
(PID.TID 0000.0001) Output Frequency:      -3600.000000 ; Phase:           0.000000
(PID.TID 0000.0001)  Averaging Freq.:          0.000000 , Phase:           0.000000 , Cycle:   1
(PID.TID 0000.0001)  missing value: -9.990000000000E+02
(PID.TID 0000.0001)  Levels:    will be set later
(PID.TID 0000.0001)  Fields:    SIarea   SIheff   SIhsnow  sIceLoad SIuice   SIvice   SItaux   SItauy   CPLoWGHT
(PID.TID 0000.0001) Creating Output Stream: iceNcat
(PID.TID 0000.0001) Output Frequency:      -3600.000000 ; Phase:           0.000000
(PID.TID 0000.0001)  Averaging Freq.:          0.000000 , Phase:           0.000000 , Cycle:   1
(PID.TID 0000.0001)  missing value: -9.990000000000E+02 ; F-Flags="D       "
(PID.TID 0000.0001)  Levels:    will be set later
(PID.TID 0000.0001)  Fields:    SIareaN  SIheffN  SIhsnowN SIqSnow  SImeltPd SItIces  SIiceAge SI_dArea SI_dHeff SI_dHsnw
(PID.TID 0000.0001)  Fields:    SI_dQSnw
(PID.TID 0000.0001) Creating Output Stream: iceEnerg
(PID.TID 0000.0001) Output Frequency:      -3600.000000 ; Phase:           0.000000
(PID.TID 0000.0001)  Averaging Freq.:          0.000000 , Phase:           0.000000 , Cycle:   1
(PID.TID 0000.0001)  missing value: -9.990000000000E+02
(PID.TID 0000.0001)  Levels:    will be set later
(PID.TID 0000.0001)  Fields:    SIqIce   SI_dQIce
(PID.TID 0000.0001) -----------------------------------------------------
(PID.TID 0000.0001)  DIAGNOSTICS_READPARMS: statistics diags. summary:
(PID.TID 0000.0001) Creating Stats. Output Stream: iceStDiag
(PID.TID 0000.0001) Output Frequency:       3600.000000 ; Phase:           0.000000
(PID.TID 0000.0001)  Regions:   0
(PID.TID 0000.0001)  Fields:    SIarea   SIheff   SIhsnow  sIceLoad SIuice   SIvice   SItaux   SItauy   SIareaN  SIheffN
(PID.TID 0000.0001)  Fields:    SIhsnowN SIqSnow  SIqIce   SImeltPd SItIces  SIiceAge SI_dArea SI_dHeff SI_dHsnw SI_dQSnw
(PID.TID 0000.0001)  Fields:    SI_dQIce
(PID.TID 0000.0001) -----------------------------------------------------
(PID.TID 0000.0001) 
(PID.TID 0000.0001) SET_PARMS: done
(PID.TID 0000.0001) Enter INI_VERTICAL_GRID: setInterFDr=    T ; setCenterDr=    F
(PID.TID 0000.0001) tile:   1 ; Read from file grid_cs32.face001.bin
(PID.TID 0000.0001)   => xC yC dxF dyF rA xG yG dxV dyU rAz dxC dyC rAw rAs dxG dyG AngleCS AngleSN
(PID.TID 0000.0001) %MON XC_max                       =   1.7854351589505E+02
(PID.TID 0000.0001) %MON XC_min                       =  -1.7854351589505E+02
(PID.TID 0000.0001) %MON XC_mean                      =  -4.6999441375798E-15
(PID.TID 0000.0001) %MON XC_sd                        =   1.0355545336287E+02
(PID.TID 0000.0001) %MON XG_max                       =   1.8000000000000E+02
(PID.TID 0000.0001) %MON XG_min                       =  -1.7708797161002E+02
(PID.TID 0000.0001) %MON XG_mean                      =   1.8603515625000E+00
(PID.TID 0000.0001) %MON XG_sd                        =   1.0357130300504E+02
(PID.TID 0000.0001) %MON DXC_max                      =   3.2375185836900E+05
(PID.TID 0000.0001) %MON DXC_min                      =   1.1142031410131E+05
(PID.TID 0000.0001) %MON DXC_mean                     =   2.8605689051214E+05
(PID.TID 0000.0001) %MON DXC_sd                       =   3.4042087138252E+04
(PID.TID 0000.0001) %MON DXF_max                      =   3.2369947500827E+05
(PID.TID 0000.0001) %MON DXF_min                      =   1.2020820513318E+05
(PID.TID 0000.0001) %MON DXF_mean                     =   2.8605437324820E+05
(PID.TID 0000.0001) %MON DXF_sd                       =   3.4050524252539E+04
(PID.TID 0000.0001) %MON DXG_max                      =   3.2375195872773E+05
(PID.TID 0000.0001) %MON DXG_min                      =   1.0098378008791E+05
(PID.TID 0000.0001) %MON DXG_mean                     =   2.8603818508931E+05
(PID.TID 0000.0001) %MON DXG_sd                       =   3.4140406908005E+04
(PID.TID 0000.0001) %MON DXV_max                      =   3.2380418162750E+05
(PID.TID 0000.0001) %MON DXV_min                      =   8.0152299824136E+04
(PID.TID 0000.0001) %MON DXV_mean                     =   2.8603970633619E+05
(PID.TID 0000.0001) %MON DXV_sd                       =   3.4145142117723E+04
(PID.TID 0000.0001) %MON YC_max                       =   8.7940663871962E+01
(PID.TID 0000.0001) %MON YC_min                       =  -8.7940663871962E+01
(PID.TID 0000.0001) %MON YC_mean                      =   0.0000000000000E+00
(PID.TID 0000.0001) %MON YC_sd                        =   3.8676242969072E+01
(PID.TID 0000.0001) %MON YG_max                       =   9.0000000000000E+01
(PID.TID 0000.0001) %MON YG_min                       =  -9.0000000000000E+01
(PID.TID 0000.0001) %MON YG_mean                      =  -1.1842378929335E-15
(PID.TID 0000.0001) %MON YG_sd                        =   3.8676895860710E+01
(PID.TID 0000.0001) %MON DYC_max                      =   3.2375185836900E+05
(PID.TID 0000.0001) %MON DYC_min                      =   1.1142031410131E+05
(PID.TID 0000.0001) %MON DYC_mean                     =   2.8605689051214E+05
(PID.TID 0000.0001) %MON DYC_sd                       =   3.4042087138252E+04
(PID.TID 0000.0001) %MON DYF_max                      =   3.2369947500827E+05
(PID.TID 0000.0001) %MON DYF_min                      =   1.2020820513318E+05
(PID.TID 0000.0001) %MON DYF_mean                     =   2.8605437324820E+05
(PID.TID 0000.0001) %MON DYF_sd                       =   3.4050524252539E+04
(PID.TID 0000.0001) %MON DYG_max                      =   3.2375195872773E+05
(PID.TID 0000.0001) %MON DYG_min                      =   1.0098378008791E+05
(PID.TID 0000.0001) %MON DYG_mean                     =   2.8603818508931E+05
(PID.TID 0000.0001) %MON DYG_sd                       =   3.4140406908005E+04
(PID.TID 0000.0001) %MON DYU_max                      =   3.2380418162750E+05
(PID.TID 0000.0001) %MON DYU_min                      =   8.0152299824136E+04
(PID.TID 0000.0001) %MON DYU_mean                     =   2.8603970633619E+05
(PID.TID 0000.0001) %MON DYU_sd                       =   3.4145142117723E+04
(PID.TID 0000.0001) %MON RA_max                       =   1.0479260248419E+11
(PID.TID 0000.0001) %MON RA_min                       =   1.4019007022556E+10
(PID.TID 0000.0001) %MON RA_mean                      =   8.2992246709265E+10
(PID.TID 0000.0001) %MON RA_sd                        =   1.7509089299457E+10
(PID.TID 0000.0001) %MON RAW_max                      =   1.0480965274559E+11
(PID.TID 0000.0001) %MON RAW_min                      =   1.2166903467143E+10
(PID.TID 0000.0001) %MON RAW_mean                     =   8.2992246709235E+10
(PID.TID 0000.0001) %MON RAW_sd                       =   1.7481917919656E+10
(PID.TID 0000.0001) %MON RAS_max                      =   1.0480965274559E+11
(PID.TID 0000.0001) %MON RAS_min                      =   1.2166903467143E+10
(PID.TID 0000.0001) %MON RAS_mean                     =   8.2992246709235E+10
(PID.TID 0000.0001) %MON RAS_sd                       =   1.7481917919656E+10
(PID.TID 0000.0001) %MON RAZ_max                      =   1.0484349334619E+11
(PID.TID 0000.0001) %MON RAZ_min                      =   8.8317900612505E+09
(PID.TID 0000.0001) %MON RAZ_mean                     =   8.2992246709235E+10
(PID.TID 0000.0001) %MON RAZ_sd                       =   1.7482297311044E+10
(PID.TID 0000.0001) %MON AngleCS_max                  =   9.9999994756719E-01
(PID.TID 0000.0001) %MON AngleCS_min                  =  -9.9968286884824E-01
(PID.TID 0000.0001) %MON AngleCS_mean                 =   3.3078922539000E-01
(PID.TID 0000.0001) %MON AngleCS_sd                   =   6.2496278958502E-01
(PID.TID 0000.0001) %MON AngleSN_max                  =   9.9968286884824E-01
(PID.TID 0000.0001) %MON AngleSN_min                  =  -9.9999994756719E-01
(PID.TID 0000.0001) %MON AngleSN_mean                 =  -3.3078922539000E-01
(PID.TID 0000.0001) %MON AngleSN_sd                   =   6.2496278958502E-01
(PID.TID 0000.0001)  MDS_READ_FIELD: opening global file: bathy_Hmin50.bin
(PID.TID 0000.0001) // =======================================================
(PID.TID 0000.0001) // Field Model R_low (ini_masks_etc)
(PID.TID 0000.0001) // CMIN =         -5.200000000000000E+03
(PID.TID 0000.0001) // CMAX =         -5.000000000000000E+01
(PID.TID 0000.0001) // CINT =          1.907407407407407E+02
(PID.TID 0000.0001) // SYMBOLS (CMIN->CMAX): -abcdefghijklmnopqrstuvwxyz+
(PID.TID 0000.0001) //                  0.0: .
(PID.TID 0000.0001) // RANGE I (Lo:Hi:Step):(    -3:    36:     1)
(PID.TID 0000.0001) // RANGE J (Lo:Hi:Step):(    36:    -3:    -1)
(PID.TID 0000.0001) // RANGE K (Lo:Hi:Step):(   1:   1:   1)
(PID.TID 0000.0001) // =======================================================
(PID.TID 0000.0001) K =   1
(PID.TID 0000.0001) //                I=6       I=16      I=26      I=36
(PID.TID 0000.0001) // |--J--|321012345|789012345|789012345|789012345|
(PID.TID 0000.0001) //     36 cbbc-ddcbcdehkhhmn..++..................
(PID.TID 0000.0001) //     35 dcac--cbbeefjkfefw+..........zpu........
(PID.TID 0000.0001) //     34 d--ba-abcehjnldcclz+........spps........
(PID.TID 0000.0001) //     33 --abbbccceiomkfdbbc+.......+s...........
(PID.TID 0000.0001) //     32 --bddefhhkqqlgfaakqz..v.+..+............
(PID.TID 0000.0001) //     31 abbcffijnpnqneaaat..umrr+s.z............
(PID.TID 0000.0001) //     30 --adgillkkkifcadcx.ymmqzqikvnnps........
(PID.TID 0000.0001) //     29 --cfiljigfjd--efdozy...+ximpnnuz........
(PID.TID 0000.0001) //     28 -abgkhfcccea-bdei........t..............
(PID.TID 0000.0001) //     27 -acghfbaaaa-achmy......................+
(PID.TID 0000.0001) //     26 -adhfca-----bfiv.......................+
(PID.TID 0000.0001) //     25 -achfa------ch+..................w......
(PID.TID 0000.0001) //     24 aaeifa--acbcei...................w......
(PID.TID 0000.0001) //     23 abfida-aabchjk...................zz.....
(PID.TID 0000.0001) //     22 -afhfaa---bfgi....................zz..rn
(PID.TID 0000.0001) //     21 babcgca----abe.....................ysstl
(PID.TID 0000.0001) //     20 fbbbcgfcaa-aae+.......................lc
(PID.TID 0000.0001) //     19 zmfeccdghfeegcbt......................aa
(PID.TID 0000.0001) //     18 ..wifedfkhfegbbcivlqfoz..............jaa
(PID.TID 0000.0001) //     17 ..+wfeefikhgcbbccaaacgn.............icaa
(PID.TID 0000.0001) //     16 ....wiheddeccdfhfbabdfl............jdbad
(PID.TID 0000.0001) //     15 ......ylea--acfihebcbbes..........sfcbbn
(PID.TID 0000.0001) //     14 ........c---acgkhdcc--di..........ofddch
(PID.TID 0000.0001) //     13 .......+b----cfkhec---afz.........nhfdff
(PID.TID 0000.0001) //     12 .......ec----chjhec---ag..........skiqdd
(PID.TID 0000.0001) //     11 ......pdca--achlheba--ai..........nkn.fd
(PID.TID 0000.0001) //     10 ......wfdb--achlhea---an.........uos..dc
(PID.TID 0000.0001) //      9 ......vgec---bfikca--cjl+.......+nnv.+cc
(PID.TID 0000.0001) //      8 .....zleca---afjfca--hdfz.......vkky.jce
(PID.TID 0000.0001) //      7 ...+zohec--abcfkhecbchbdx.......qiht.faa
(PID.TID 0000.0001) //      6 ..+yomfddcaabefkifdchaadt......uqdeisc--
(PID.TID 0000.0001) //      5 ..+nhgffkghccfhkhffgdaackz....uoibcimlaa
(PID.TID 0000.0001) //      4 .+ujhgfllfhdffhkfffca-aady...llnabdopfcb
(PID.TID 0000.0001) //      3 +vjggfcceeffffjlkjgaa---bfvheeln-aesphfd
(PID.TID 0000.0001) //      2 qifeecbbccddefilihecbaacbaajfega-aesqhff
(PID.TID 0000.0001) //      1 ebbbbaaaaaccdfhlhfefdcccaabjefbaaafonhgl
(PID.TID 0000.0001) //      0 -aaaaaaa-aacccfikkhecccbbbaaabaadfkllilm
(PID.TID 0000.0001) //     -1 --aaaaa----aacffiljgfffcca--adfikkiikimi
(PID.TID 0000.0001) //     -2 --aaa-------acdefinmlgiieb-chnnnmlmlfklk
(PID.TID 0000.0001) //     -3 a--a---aa---aedeegknmlgiigcdfhpokkimdkmk
(PID.TID 0000.0001) // =======================================================
(PID.TID 0000.0001) // END OF FIELD                                          =
(PID.TID 0000.0001) // =======================================================
(PID.TID 0000.0001) 
(PID.TID 0000.0001) // =======================================================
(PID.TID 0000.0001) // Field Model Ro_surf (ini_masks_etc)
(PID.TID 0000.0001) // CMIN =          1.000000000000000E+32
(PID.TID 0000.0001) // CMAX =         -1.000000000000000E+32
(PID.TID 0000.0001) // CINT =          0.000000000000000E+00
(PID.TID 0000.0001) // SYMBOLS (CMIN->CMAX): -abcdefghijklmnopqrstuvwxyz+
(PID.TID 0000.0001) //                  0.0: .
(PID.TID 0000.0001) // RANGE I (Lo:Hi:Step):(    -3:    36:     1)
(PID.TID 0000.0001) // RANGE J (Lo:Hi:Step):(    36:    -3:    -1)
(PID.TID 0000.0001) // RANGE K (Lo:Hi:Step):(   1:   1:   1)
(PID.TID 0000.0001) // =======================================================
(PID.TID 0000.0001) // =======================================================
(PID.TID 0000.0001) // END OF FIELD                                          =
(PID.TID 0000.0001) // =======================================================
(PID.TID 0000.0001) 
(PID.TID 0000.0001) // =======================================================
(PID.TID 0000.0001) // Field hFacC at iteration          0
(PID.TID 0000.0001) // CMIN =          1.000000000000000E+00
(PID.TID 0000.0001) // CMAX =          1.000000000000000E+00
(PID.TID 0000.0001) // CINT =          0.000000000000000E+00
(PID.TID 0000.0001) // SYMBOLS (CMIN->CMAX): -abcdefghijklmnopqrstuvwxyz+
(PID.TID 0000.0001) //                  0.0: .
(PID.TID 0000.0001) // RANGE I (Lo:Hi:Step):(    -3:    36:     1)
(PID.TID 0000.0001) // RANGE J (Lo:Hi:Step):(    36:    -3:    -1)
(PID.TID 0000.0001) // RANGE K (Lo:Hi:Step):(   1:   1:   1)
(PID.TID 0000.0001) // =======================================================
(PID.TID 0000.0001) // =======================================================
(PID.TID 0000.0001) // END OF FIELD                                          =
(PID.TID 0000.0001) // =======================================================
(PID.TID 0000.0001) 
(PID.TID 0000.0001) // =======================================================
(PID.TID 0000.0001) // Field hFacW at iteration          0
(PID.TID 0000.0001) // CMIN =          1.000000000000000E+00
(PID.TID 0000.0001) // CMAX =          1.000000000000000E+00
(PID.TID 0000.0001) // CINT =          0.000000000000000E+00
(PID.TID 0000.0001) // SYMBOLS (CMIN->CMAX): -abcdefghijklmnopqrstuvwxyz+
(PID.TID 0000.0001) //                  0.0: .
(PID.TID 0000.0001) // RANGE I (Lo:Hi:Step):(    -3:    36:     1)
(PID.TID 0000.0001) // RANGE J (Lo:Hi:Step):(    36:    -3:    -1)
(PID.TID 0000.0001) // RANGE K (Lo:Hi:Step):(   1:   1:   1)
(PID.TID 0000.0001) // =======================================================
(PID.TID 0000.0001) // =======================================================
(PID.TID 0000.0001) // END OF FIELD                                          =
(PID.TID 0000.0001) // =======================================================
(PID.TID 0000.0001) 
(PID.TID 0000.0001) // =======================================================
(PID.TID 0000.0001) // Field hFacS at iteration          0
(PID.TID 0000.0001) // CMIN =          1.000000000000000E+00
(PID.TID 0000.0001) // CMAX =          1.000000000000000E+00
(PID.TID 0000.0001) // CINT =          0.000000000000000E+00
(PID.TID 0000.0001) // SYMBOLS (CMIN->CMAX): -abcdefghijklmnopqrstuvwxyz+
(PID.TID 0000.0001) //                  0.0: .
(PID.TID 0000.0001) // RANGE I (Lo:Hi:Step):(    -3:    36:     1)
(PID.TID 0000.0001) // RANGE J (Lo:Hi:Step):(    36:    -3:    -1)
(PID.TID 0000.0001) // RANGE K (Lo:Hi:Step):(   1:   1:   1)
(PID.TID 0000.0001) // =======================================================
(PID.TID 0000.0001) // =======================================================
(PID.TID 0000.0001) // END OF FIELD                                          =
(PID.TID 0000.0001) // =======================================================
(PID.TID 0000.0001) 
(PID.TID 0000.0001) GAD_INIT_FIXED: GAD_OlMinSize=  1  0  1
(PID.TID 0000.0001) 
(PID.TID 0000.0001) // ===================================
(PID.TID 0000.0001) // GAD parameters :
(PID.TID 0000.0001) // ===================================
(PID.TID 0000.0001) tempAdvScheme =   /* Temp. Horiz.Advection scheme selector */
(PID.TID 0000.0001)                       2
(PID.TID 0000.0001)     ;
(PID.TID 0000.0001) tempVertAdvScheme =   /* Temp. Vert. Advection scheme selector */
(PID.TID 0000.0001)                       2
(PID.TID 0000.0001)     ;
(PID.TID 0000.0001) tempMultiDimAdvec =   /* use Muti-Dim Advec method for Temp */
(PID.TID 0000.0001)                   F
(PID.TID 0000.0001)     ;
(PID.TID 0000.0001) tempSOM_Advection = /* use 2nd Order Moment Advection for Temp */
(PID.TID 0000.0001)                   F
(PID.TID 0000.0001)     ;
(PID.TID 0000.0001) AdamsBashforthGt = /* apply Adams-Bashforth extrapolation on Gt */
(PID.TID 0000.0001)                   T
(PID.TID 0000.0001)     ;
(PID.TID 0000.0001) AdamsBashforth_T = /* apply Adams-Bashforth extrapolation on Temp */
(PID.TID 0000.0001)                   F
(PID.TID 0000.0001)     ;
(PID.TID 0000.0001) saltAdvScheme =   /* Salt. Horiz.advection scheme selector */
(PID.TID 0000.0001)                       2
(PID.TID 0000.0001)     ;
(PID.TID 0000.0001) saltVertAdvScheme =   /* Salt. Vert. Advection scheme selector */
(PID.TID 0000.0001)                       2
(PID.TID 0000.0001)     ;
(PID.TID 0000.0001) saltMultiDimAdvec =   /* use Muti-Dim Advec method for Salt */
(PID.TID 0000.0001)                   F
(PID.TID 0000.0001)     ;
(PID.TID 0000.0001) saltSOM_Advection = /* use 2nd Order Moment Advection for Salt */
(PID.TID 0000.0001)                   F
(PID.TID 0000.0001)     ;
(PID.TID 0000.0001) AdamsBashforthGs = /* apply Adams-Bashforth extrapolation on Gs */
(PID.TID 0000.0001)                   T
(PID.TID 0000.0001)     ;
(PID.TID 0000.0001) AdamsBashforth_S = /* apply Adams-Bashforth extrapolation on Salt */
(PID.TID 0000.0001)                   F
(PID.TID 0000.0001)     ;
(PID.TID 0000.0001) // ===================================
(PID.TID 0000.0001)  SEAICE_INIT_FIXED:  5 sea ice thickness categories
(PID.TID 0000.0001)  SEAICE_INIT_FIXED: Hlimit =   0.00  0.64  1.39  2.47  4.57 999.9
(PID.TID 0000.0001) // =======================================================
(PID.TID 0000.0001) // Seaice configuration (SEAICE_PARM01) >>> START <<<
(PID.TID 0000.0001) // =======================================================
(PID.TID 0000.0001) 
(PID.TID 0000.0001)    Seaice time stepping configuration   > START <
(PID.TID 0000.0001)    ----------------------------------------------
(PID.TID 0000.0001) SEAICE_deltaTtherm= /* thermodynamic timestep */
(PID.TID 0000.0001)                 9.000000000000000E+02
(PID.TID 0000.0001)     ;
(PID.TID 0000.0001) SEAICE_deltaTdyn  = /* dynamic timestep */
(PID.TID 0000.0001)                 9.000000000000000E+02
(PID.TID 0000.0001)     ;
(PID.TID 0000.0001) SEAICE_deltaTevp  = /* EVP timestep */
(PID.TID 0000.0001)                 1.234567000000000E+05
(PID.TID 0000.0001)     ;
(PID.TID 0000.0001) SEAICEuseBDF2  = /* use backw. differencing for mom. eq. */
(PID.TID 0000.0001)                   F
(PID.TID 0000.0001)     ;
(PID.TID 0000.0001) SEAICEupdateOceanStress= /* update Ocean surf. stress */
(PID.TID 0000.0001)                   F
(PID.TID 0000.0001)     ;
(PID.TID 0000.0001) SEAICErestoreUnderIce  = /* restore T and S under ice */
(PID.TID 0000.0001)                   F
(PID.TID 0000.0001)     ;
(PID.TID 0000.0001) 
(PID.TID 0000.0001)    Seaice dynamics configuration   > START <
(PID.TID 0000.0001)    ------------------------------------------
(PID.TID 0000.0001) SEAICEuseDYNAMICS = /* use dynamics */
(PID.TID 0000.0001)                   T
(PID.TID 0000.0001)     ;
(PID.TID 0000.0001) model grid type   = /* type of sea ice model grid */
(PID.TID 0000.0001)               'C-GRID'
(PID.TID 0000.0001)     ;
(PID.TID 0000.0001) SEAICEuseStrImpCpl = /* use strongly implicit coupling */
(PID.TID 0000.0001)                   F
(PID.TID 0000.0001)     ;
(PID.TID 0000.0001) SEAICEusePicardAsPrecon = /* Picard as preconditioner */
(PID.TID 0000.0001)                   F
(PID.TID 0000.0001)     ;
(PID.TID 0000.0001) SEAICEuseLSR      = /* use default Picard-LSR solver */
(PID.TID 0000.0001)                   T
(PID.TID 0000.0001)     ;
(PID.TID 0000.0001) SEAICEuseKrylov   = /* use Picard-Krylov solver */
(PID.TID 0000.0001)                   F
(PID.TID 0000.0001)     ;
(PID.TID 0000.0001) SEAICEuseEVP      = /* use EVP solver rather than LSR */
(PID.TID 0000.0001)                   F
(PID.TID 0000.0001)     ;
(PID.TID 0000.0001) SEAICEuseJFNK     = /* use JFNK solver */
(PID.TID 0000.0001)                   F
(PID.TID 0000.0001)     ;
(PID.TID 0000.0001) OCEAN_drag        = /* air-ocean drag coefficient */
(PID.TID 0000.0001)                 8.154100000000000E-04
(PID.TID 0000.0001)     ;
(PID.TID 0000.0001) SEAICE_drag       = /* air-ice drag coefficient */
(PID.TID 0000.0001)                 2.000000000000000E-03
(PID.TID 0000.0001)     ;
(PID.TID 0000.0001) SEAICE_drag_south      = /* Southern Ocean SEAICE_drag */
(PID.TID 0000.0001)                 2.000000000000000E-03
(PID.TID 0000.0001)     ;
(PID.TID 0000.0001) SEAICE_waterDrag  = /* water-ice drag */
(PID.TID 0000.0001)                 5.169855072463768E-03
(PID.TID 0000.0001)     ;
(PID.TID 0000.0001) SEAICE_waterDrag_south = /* Southern Ocean waterDrag */
(PID.TID 0000.0001)                 5.169855072463768E-03
(PID.TID 0000.0001)     ;
(PID.TID 0000.0001) SEAICEuseTilt     = /* include surface tilt in dyna. */
(PID.TID 0000.0001)                   T
(PID.TID 0000.0001)     ;
(PID.TID 0000.0001) SEAICEuseTEM      = /* use truncated ellipse rheology */
(PID.TID 0000.0001)                   F
(PID.TID 0000.0001)     ;
(PID.TID 0000.0001) SEAICE_strength   = /* sea-ice strength Pstar */
(PID.TID 0000.0001)                 2.678000000000000E+04
(PID.TID 0000.0001)     ;
(PID.TID 0000.0001) SEAICE_cStar      = /* sea-ice strength parameter cStar */
(PID.TID 0000.0001)                 2.000000000000000E+01
(PID.TID 0000.0001)     ;
(PID.TID 0000.0001) SEAICEpressReplFac= /* press. replacement method factor */
(PID.TID 0000.0001)                 1.000000000000000E+00
(PID.TID 0000.0001)     ;
(PID.TID 0000.0001) SEAICE_tensilFac  = /* sea-ice tensile strength factor */
(PID.TID 0000.0001)                 0.000000000000000E+00
(PID.TID 0000.0001)     ;
(PID.TID 0000.0001) SEAICE_tensilDepth= /* crit. depth for tensile strength */
(PID.TID 0000.0001)                 0.000000000000000E+00
(PID.TID 0000.0001)     ;
(PID.TID 0000.0001) SEAICEpresH0   = /* sea-ice strength Heff threshold */
(PID.TID 0000.0001)                 1.000000000000000E+00
(PID.TID 0000.0001)     ;
(PID.TID 0000.0001) SEAICEpresPow0 = /* exponent for Heff<SEAICEpresH0 */
(PID.TID 0000.0001)                       1
(PID.TID 0000.0001)     ;
(PID.TID 0000.0001) SEAICEpresPow1 = /* exponent for Heff>SEAICEpresH0 */
(PID.TID 0000.0001)                       1
(PID.TID 0000.0001)     ;
(PID.TID 0000.0001) SEAICEetaZmethod = /* method computing eta at Z-point */
(PID.TID 0000.0001)                       0
(PID.TID 0000.0001)     ;
(PID.TID 0000.0001) SEAICE_zetaMin    = /* lower bound for viscosity */
(PID.TID 0000.0001)                 0.000000000000000E+00
(PID.TID 0000.0001)     ;
(PID.TID 0000.0001) SEAICE_eccen    = /* elliptical yield curve eccent */
(PID.TID 0000.0001)                 2.000000000000000E+00
(PID.TID 0000.0001)     ;
(PID.TID 0000.0001) SEAICEstressFactor    = /* wind stress scaling factor */
(PID.TID 0000.0001)                 1.000000000000000E+00
(PID.TID 0000.0001)     ;
(PID.TID 0000.0001) SEAICE_airTurnAngle    = /* air-ice turning angle */
(PID.TID 0000.0001)                 0.000000000000000E+00
(PID.TID 0000.0001)     ;
(PID.TID 0000.0001) SEAICE_waterTurnAngle  = /* ice-water turning angle */
(PID.TID 0000.0001)                 0.000000000000000E+00
(PID.TID 0000.0001)     ;
(PID.TID 0000.0001) SEAICEuseMetricTerms = /* use metric terms */
(PID.TID 0000.0001)                   T
(PID.TID 0000.0001)     ;
(PID.TID 0000.0001) SEAICE_no_slip    = /* no slip boundary conditions */
(PID.TID 0000.0001)                   F
(PID.TID 0000.0001)     ;
(PID.TID 0000.0001) SEAICE_2ndOrderBC = /* 2nd order no slip boundary conditions */
(PID.TID 0000.0001)                   F
(PID.TID 0000.0001)     ;
(PID.TID 0000.0001) SEAICE_clipVeloctities = /* impose max. vels. */
(PID.TID 0000.0001)                   F
(PID.TID 0000.0001)     ;
(PID.TID 0000.0001) useHB87stressCoupling  = /* altern. ice-ocean stress */
(PID.TID 0000.0001)                   F
(PID.TID 0000.0001)     ;
(PID.TID 0000.0001) SEAICEscaleSurfStress  = /* scale atm. and ocean-surface stress with AREA */
(PID.TID 0000.0001)                   F
(PID.TID 0000.0001)     ;
(PID.TID 0000.0001) SEAICE_maskRHS    = /* mask RHS of solver */
(PID.TID 0000.0001)                   F
(PID.TID 0000.0001)     ;
(PID.TID 0000.0001) SEAICEaddSnowMass = /* add snow mass to seaiceMassC/U/V */
(PID.TID 0000.0001)                   F
(PID.TID 0000.0001)     ;
(PID.TID 0000.0001) LSR_mixIniGuess = /* mix free-drift sol. into LSR initial Guess */
(PID.TID 0000.0001)                      -1
(PID.TID 0000.0001)     ;
(PID.TID 0000.0001) SEAICE_LSRrelaxU  = /* LSR solver: relaxation parameter */
(PID.TID 0000.0001)                 9.500000000000000E-01
(PID.TID 0000.0001)     ;
(PID.TID 0000.0001) SEAICE_LSRrelaxV  = /* LSR solver: relaxation parameter */
(PID.TID 0000.0001)                 9.500000000000000E-01
(PID.TID 0000.0001)     ;
(PID.TID 0000.0001) LSR_ERROR         = /* sets accuracy of LSR solver */
(PID.TID 0000.0001)                 1.000000000000000E-04
(PID.TID 0000.0001)     ;
(PID.TID 0000.0001) SOLV_NCHECK       = /* test interval for LSR solver */
(PID.TID 0000.0001)                       2
(PID.TID 0000.0001)     ;
(PID.TID 0000.0001) SEAICEuseMultiTileSolver = /* use full domain tri-diag solver */
(PID.TID 0000.0001)                   F
(PID.TID 0000.0001)     ;
(PID.TID 0000.0001) SEAICE_OLx = /* overlap for LSR/preconditioner */
(PID.TID 0000.0001)                       0
(PID.TID 0000.0001)     ;
(PID.TID 0000.0001) SEAICE_OLy = /* overlap for LSR/preconditioner */
(PID.TID 0000.0001)                       0
(PID.TID 0000.0001)     ;
(PID.TID 0000.0001) SEAICEnonLinIterMax = /* max. number of nonlinear solver steps */
(PID.TID 0000.0001)                       2
(PID.TID 0000.0001)     ;
(PID.TID 0000.0001) SEAICElinearIterMax = /* max. number of linear solver steps */
(PID.TID 0000.0001)                     500
(PID.TID 0000.0001)     ;
(PID.TID 0000.0001) SEAICEnonLinTol     = /* non-linear solver tolerance */
(PID.TID 0000.0001)                 0.000000000000000E+00
(PID.TID 0000.0001)     ;
(PID.TID 0000.0001) 
(PID.TID 0000.0001)    Seaice advection diffusion config,   > START <
(PID.TID 0000.0001)    -----------------------------------------------
(PID.TID 0000.0001) SEAICEmomAdvection = /* advect sea ice momentum */
(PID.TID 0000.0001)                   F
(PID.TID 0000.0001)     ;
(PID.TID 0000.0001) SEAICEadvHeff = /* advect effective ice thickness */
(PID.TID 0000.0001)                   T
(PID.TID 0000.0001)     ;
(PID.TID 0000.0001) SEAICEadvArea = /* advect fractional ice area */
(PID.TID 0000.0001)                   T
(PID.TID 0000.0001)     ;
(PID.TID 0000.0001) SEAICEadvSnow = /* advect snow layer together with ice */
(PID.TID 0000.0001)                   T
(PID.TID 0000.0001)     ;
(PID.TID 0000.0001) SEAICEadvScheme   = /* advection scheme for ice */
(PID.TID 0000.0001)                      77
(PID.TID 0000.0001)     ;
(PID.TID 0000.0001) SEAICEadvSchArea   = /* advection scheme for area */
(PID.TID 0000.0001)                      77
(PID.TID 0000.0001)     ;
(PID.TID 0000.0001) SEAICEadvSchHeff   = /* advection scheme for thickness */
(PID.TID 0000.0001)                      77
(PID.TID 0000.0001)     ;
(PID.TID 0000.0001) SEAICEadvSchSnow   = /* advection scheme for snow */
(PID.TID 0000.0001)                      77
(PID.TID 0000.0001)     ;
(PID.TID 0000.0001) SEAICEdiffKhArea   = /* diffusivity (m^2/s) for area */
(PID.TID 0000.0001)                 0.000000000000000E+00
(PID.TID 0000.0001)     ;
(PID.TID 0000.0001) SEAICEdiffKhHeff   = /* diffusivity (m^2/s) for heff */
(PID.TID 0000.0001)                 0.000000000000000E+00
(PID.TID 0000.0001)     ;
(PID.TID 0000.0001) SEAICEdiffKhSnow   = /* diffusivity (m^2/s) for snow */
(PID.TID 0000.0001)                 0.000000000000000E+00
(PID.TID 0000.0001)     ;
(PID.TID 0000.0001) DIFF1             = /* parameter used in advect.F [m/s] */
(PID.TID 0000.0001)                 0.000000000000000E+00
(PID.TID 0000.0001)     ;
(PID.TID 0000.0001) 
(PID.TID 0000.0001)    Seaice thermodynamics configuration   > START <
(PID.TID 0000.0001)    -----------------------------------------------
(PID.TID 0000.0001) SEAICE_rhoIce     = /* density of sea ice (kg/m3) */
(PID.TID 0000.0001)                 9.100000000000000E+02
(PID.TID 0000.0001)     ;
(PID.TID 0000.0001) SEAICE_rhoSnow    = /* density of snow (kg/m3) */
(PID.TID 0000.0001)                 3.300000000000000E+02
(PID.TID 0000.0001)     ;
(PID.TID 0000.0001) SEAICE_rhoAir     = /* density of air (kg/m3) */
(PID.TID 0000.0001)                 1.300000000000000E+00
(PID.TID 0000.0001)     ;
(PID.TID 0000.0001) usePW79thermodynamics  = /* default 0-layer TD */
(PID.TID 0000.0001)                   F
(PID.TID 0000.0001)     ;
(PID.TID 0000.0001)    pkg/seaice thermodynamics is OFF
(PID.TID 0000.0001) 
(PID.TID 0000.0001)    Seaice initialization and IO config.,   > START <
(PID.TID 0000.0001)    -------------------------------------------------
(PID.TID 0000.0001) SEAICE_initialHEFF= /* initial sea-ice thickness */
(PID.TID 0000.0001)                 0.000000000000000E+00
(PID.TID 0000.0001)     ;
(PID.TID 0000.0001) AreaFile = /* Initial ice concentration File */
(PID.TID 0000.0001)               ''
(PID.TID 0000.0001)     ;
(PID.TID 0000.0001) HeffFile = /* Initial effective ice thickness File */
(PID.TID 0000.0001)               ''
(PID.TID 0000.0001)     ;
(PID.TID 0000.0001) HsnowFile = /* Initial snow thickness File */
(PID.TID 0000.0001)               ''
(PID.TID 0000.0001)     ;
(PID.TID 0000.0001) uIceFile = /* Initial U-ice velocity File */
(PID.TID 0000.0001)               ''
(PID.TID 0000.0001)     ;
(PID.TID 0000.0001) vIceFile = /* Initial V-ice velocity File */
(PID.TID 0000.0001)               ''
(PID.TID 0000.0001)     ;
(PID.TID 0000.0001) SEAICEwriteState  = /* write sea ice state to file */
(PID.TID 0000.0001)                   T
(PID.TID 0000.0001)     ;
(PID.TID 0000.0001) SEAICE_monFreq  = /* monitor frequency */
(PID.TID 0000.0001)                 1.000000000000000E+00
(PID.TID 0000.0001)     ;
(PID.TID 0000.0001) SEAICE_dumpFreq   = /* dump frequency */
(PID.TID 0000.0001)                 0.000000000000000E+00
(PID.TID 0000.0001)     ;
(PID.TID 0000.0001) SEAICE_taveFreq   = /* time-averaging frequency */
(PID.TID 0000.0001)                 0.000000000000000E+00
(PID.TID 0000.0001)     ;
(PID.TID 0000.0001) SEAICE_mon_stdio  = /* write monitor to std-outp */
(PID.TID 0000.0001)                   T
(PID.TID 0000.0001)     ;
(PID.TID 0000.0001) SEAICE_dump_mdsio = /* write snap-shot   using MDSIO */
(PID.TID 0000.0001)                   T
(PID.TID 0000.0001)     ;
(PID.TID 0000.0001) SEAICE_tave_mdsio = /* write TimeAverage using MDSIO */
(PID.TID 0000.0001)                   T
(PID.TID 0000.0001)     ;
(PID.TID 0000.0001) 
(PID.TID 0000.0001)    Seaice regularization numbers,   > START <
(PID.TID 0000.0001)    -----------------------------------------------
(PID.TID 0000.0001) SEAICE_deltaMin   = /* reduce singularities in Delta */
(PID.TID 0000.0001)                 1.000000000000000E-10
(PID.TID 0000.0001)     ;
(PID.TID 0000.0001) SEAICE_EPS        = /* small number */
(PID.TID 0000.0001)                 1.000000000000000E-10
(PID.TID 0000.0001)     ;
(PID.TID 0000.0001) SEAICE_EPS_SQ     = /* small number squared */
(PID.TID 0000.0001)                 1.000000000000000E-20
(PID.TID 0000.0001)     ;
(PID.TID 0000.0001) SEAICE_area_reg   = /* reduce derivative singularities */
(PID.TID 0000.0001)                 1.000000000000000E-05
(PID.TID 0000.0001)     ;
(PID.TID 0000.0001) SEAICE_hice_reg   = /* reduce derivative singularities */
(PID.TID 0000.0001)                 5.000000000000000E-02
(PID.TID 0000.0001)     ;
(PID.TID 0000.0001) SEAICE_area_floor = /* reduce derivative singularities */
(PID.TID 0000.0001)                 1.000000000000000E-05
(PID.TID 0000.0001)     ;
(PID.TID 0000.0001) 
(PID.TID 0000.0001) // =======================================================
(PID.TID 0000.0001) // Seaice configuration (SEAICE_PARM01) >>> END <<<
(PID.TID 0000.0001) // =======================================================
(PID.TID 0000.0001) 
(PID.TID 0000.0001) ------------------------------------------------------------
(PID.TID 0000.0001) DIAGNOSTICS_SET_LEVELS: done
(PID.TID 0000.0001)  Total Nb of available Diagnostics: ndiagt=   297
(PID.TID 0000.0001)  write list of available Diagnostics to file: available_diagnostics.log
(PID.TID 0000.0001) SETDIAG: Allocate  1 x  1 Levels for Diagnostic #    86 oceQnet
(PID.TID 0000.0001) SETDIAG: Allocate  1 x  1 Levels for Diagnostic #    87 oceQsw
(PID.TID 0000.0001) SETDIAG: Allocate  1 x  1 Levels for Diagnostic #    84 oceFWflx
(PID.TID 0000.0001) SETDIAG: Allocate  1 x  1 Levels for Diagnostic #    85 oceSflux
(PID.TID 0000.0001) SETDIAG: Allocate  1 x  1 Levels for Diagnostic #    80 oceTAUX
(PID.TID 0000.0001) SETDIAG: Allocate  1 x  1 Levels for Diagnostic #    81 oceTAUY
(PID.TID 0000.0001) SETDIAG: Allocate 15 x  1 Levels for Diagnostic #    26 THETA
(PID.TID 0000.0001) SETDIAG: Allocate 15 x  1 Levels for Diagnostic #    27 SALT
(PID.TID 0000.0001) SETDIAG: Allocate 15 x  1 Levels for Diagnostic #    30 UVEL
(PID.TID 0000.0001) SETDIAG: Allocate 15 x  1 Levels for Diagnostic #    31 VVEL
(PID.TID 0000.0001) SETDIAG: Allocate  1 x  1 Levels for Diagnostic #   211 SIarea
(PID.TID 0000.0001) SETDIAG: Allocate  1 x  1 Levels for Diagnostic #   214 SIheff
(PID.TID 0000.0001) SETDIAG: Allocate  1 x  1 Levels for Diagnostic #   216 SIhsnow
(PID.TID 0000.0001) SETDIAG: Allocate  1 x  1 Levels for Diagnostic #    83 sIceLoad
(PID.TID 0000.0001) SETDIAG: Allocate  1 x  1 Levels for Diagnostic #   220 SIuice
(PID.TID 0000.0001) SETDIAG: Allocate  1 x  1 Levels for Diagnostic #   221 SIvice
(PID.TID 0000.0001) SETDIAG: Allocate  1 x  1 Levels for Diagnostic #   222 SItaux
(PID.TID 0000.0001) SETDIAG: Allocate  1 x  1 Levels for Diagnostic #   223 SItauy
(PID.TID 0000.0001) SETDIAG: Allocate  1 x  1 Levels for Diagnostic #   211 SIarea
(PID.TID 0000.0001) SETDIAG: Allocate  1 x  1 Levels for Diagnostic #   214 SIheff
(PID.TID 0000.0001) SETDIAG: Allocate  1 x  1 Levels for Diagnostic #   216 SIhsnow
(PID.TID 0000.0001) SETDIAG: Allocate  1 x  1 Levels for Diagnostic #    83 sIceLoad
(PID.TID 0000.0001) SETDIAG: Allocate  1 x  1 Levels for Diagnostic #   220 SIuice
(PID.TID 0000.0001) SETDIAG: Allocate  1 x  1 Levels for Diagnostic #   221 SIvice
(PID.TID 0000.0001) SETDIAG: Allocate  1 x  1 Levels for Diagnostic #   222 SItaux
(PID.TID 0000.0001) SETDIAG: Allocate  1 x  1 Levels for Diagnostic #   223 SItauy
(PID.TID 0000.0001) SETDIAG: Allocate  1 x  1 Levels for Diagnostic #   284 CPLoWGHT
(PID.TID 0000.0001) SETDIAG: Allocate  5 x  1 Levels for Diagnostic #   282 SIareaN
(PID.TID 0000.0001) SETDIAG: Allocate  5 x  1 Levels for Diagnostic #   281 SIheffN
(PID.TID 0000.0001) SETDIAG: Allocate  5 x  1 Levels for Diagnostic #   283 SIhsnowN
(PID.TID 0000.0001) SETDIAG: Allocate  5 x  1 Levels for Diagnostic #   287 SIqSnow
(PID.TID 0000.0001) SETDIAG: Allocate  5 x  1 Levels for Diagnostic #   288 SImeltPd
(PID.TID 0000.0001) SETDIAG: Allocate  5 x  1 Levels for Diagnostic #   285 SItIces
(PID.TID 0000.0001) SETDIAG: Allocate  5 x  1 Levels for Diagnostic #   289 SIiceAge
(PID.TID 0000.0001) SETDIAG: Allocate  5 x  1 Levels for Diagnostic #   290 SI_dArea
(PID.TID 0000.0001) SETDIAG: Allocate  5 x  1 Levels for Diagnostic #   291 SI_dHeff
(PID.TID 0000.0001) SETDIAG: Allocate  5 x  1 Levels for Diagnostic #   292 SI_dHsnw
(PID.TID 0000.0001) SETDIAG: Allocate  5 x  1 Levels for Diagnostic #   295 SI_dQSnw
(PID.TID 0000.0001) SETDIAG: Allocate 20 x  1 Levels for Diagnostic #   286 SIqIce
(PID.TID 0000.0001) SETDIAG: Allocate 20 x  1 Levels for Diagnostic #   294 SI_dQIce
(PID.TID 0000.0001)   space allocated for all diagnostics:     178 levels
(PID.TID 0000.0001)   set mate pointer for diag #    80  oceTAUX  , Parms: UU      U1 , mate:    81
(PID.TID 0000.0001)   set mate pointer for diag #    81  oceTAUY  , Parms: VV      U1 , mate:    80
(PID.TID 0000.0001)   set mate pointer for diag #    30  UVEL     , Parms: UUR     MR , mate:    31
(PID.TID 0000.0001)   set mate pointer for diag #    31  VVEL     , Parms: VVR     MR , mate:    30
(PID.TID 0000.0001)   set mate pointer for diag #   220  SIuice   , Parms: UU      M1 , mate:   221
(PID.TID 0000.0001)   set mate pointer for diag #   221  SIvice   , Parms: VV      M1 , mate:   220
(PID.TID 0000.0001)   set mate pointer for diag #   222  SItaux   , Parms: UU      U1 , mate:   223
(PID.TID 0000.0001)   set mate pointer for diag #   223  SItauy   , Parms: VV      U1 , mate:   222
(PID.TID 0000.0001)   set mate pointer for diag #   220  SIuice   , Parms: UU      M1 , mate:   221
(PID.TID 0000.0001)   set mate pointer for diag #   221  SIvice   , Parms: VV      M1 , mate:   220
(PID.TID 0000.0001)   set mate pointer for diag #   222  SItaux   , Parms: UU      U1 , mate:   223
(PID.TID 0000.0001)   set mate pointer for diag #   223  SItauy   , Parms: VV      U1 , mate:   222
(PID.TID 0000.0001) DIAGNOSTICS_SET_POINTERS: Set levels for Outp.Stream: surfDiag
(PID.TID 0000.0001)  Levels:       1.
(PID.TID 0000.0001) DIAGNOSTICS_SET_POINTERS: Set levels for Outp.Stream: iceDiag
(PID.TID 0000.0001)  Levels:       1.
(PID.TID 0000.0001) DIAGNOSTICS_SET_POINTERS: Set levels for Outp.Stream: iceInst
(PID.TID 0000.0001)  Levels:       1.
(PID.TID 0000.0001) DIAGNOSTICS_SET_POINTERS: Set levels for Outp.Stream: iceNcat
(PID.TID 0000.0001)  Levels:       1.   2.   3.   4.   5.
(PID.TID 0000.0001) DIAGNOSTICS_SET_POINTERS: Set levels for Outp.Stream: iceEnerg
(PID.TID 0000.0001)  Levels:       1.   2.   3.   4.   5.   6.   7.   8.   9.  10.  11.  12.  13.  14.  15.  16.  17.  18.  19.  20.
(PID.TID 0000.0001) DIAGNOSTICS_SET_POINTERS: done
(PID.TID 0000.0001) ------------------------------------------------------------
(PID.TID 0000.0001) DIAGSTATS_SET_REGIONS: define no region
(PID.TID 0000.0001) ------------------------------------------------------------
(PID.TID 0000.0001) SETDIAG: Allocate  1 Levels for Stats-Diag #   211 SIarea
(PID.TID 0000.0001) SETDIAG: Allocate  1 Levels for Stats-Diag #   214 SIheff
(PID.TID 0000.0001) SETDIAG: Allocate  1 Levels for Stats-Diag #   216 SIhsnow
(PID.TID 0000.0001) SETDIAG: Allocate  1 Levels for Stats-Diag #    83 sIceLoad
(PID.TID 0000.0001) SETDIAG: Allocate  1 Levels for Stats-Diag #   220 SIuice
(PID.TID 0000.0001) SETDIAG: Allocate  1 Levels for Stats-Diag #   221 SIvice
(PID.TID 0000.0001) SETDIAG: Allocate  1 Levels for Stats-Diag #   222 SItaux
(PID.TID 0000.0001) SETDIAG: Allocate  1 Levels for Stats-Diag #   223 SItauy
(PID.TID 0000.0001) SETDIAG: Allocate  5 Levels for Stats-Diag #   282 SIareaN
(PID.TID 0000.0001) SETDIAG: Allocate  5 Levels for Stats-Diag #   281 SIheffN
(PID.TID 0000.0001) SETDIAG: Allocate  5 Levels for Stats-Diag #   283 SIhsnowN
(PID.TID 0000.0001) SETDIAG: Allocate  5 Levels for Stats-Diag #   287 SIqSnow
(PID.TID 0000.0001) SETDIAG: Allocate 20 Levels for Stats-Diag #   286 SIqIce
(PID.TID 0000.0001) SETDIAG: Allocate  5 Levels for Stats-Diag #   288 SImeltPd
(PID.TID 0000.0001) SETDIAG: Allocate  5 Levels for Stats-Diag #   285 SItIces
(PID.TID 0000.0001) SETDIAG: Allocate  5 Levels for Stats-Diag #   289 SIiceAge
(PID.TID 0000.0001) SETDIAG: Allocate  5 Levels for Stats-Diag #   290 SI_dArea
(PID.TID 0000.0001) SETDIAG: Allocate  5 Levels for Stats-Diag #   291 SI_dHeff
(PID.TID 0000.0001) SETDIAG: Allocate  5 Levels for Stats-Diag #   292 SI_dHsnw
(PID.TID 0000.0001) SETDIAG: Allocate  5 Levels for Stats-Diag #   295 SI_dQSnw
(PID.TID 0000.0001) SETDIAG: Allocate 20 Levels for Stats-Diag #   294 SI_dQIce
(PID.TID 0000.0001)   space allocated for all stats-diags:     103 levels
(PID.TID 0000.0001) DIAGSTATS_SET_POINTERS: done
(PID.TID 0000.0001) ------------------------------------------------------------
(PID.TID 0000.0001) DIAGSTATS_INI_IO: open file: iceStDiag.0000000000.txt , unit=    37
(PID.TID 0000.0001) INI_GLOBAL_DOMAIN: Found  19 CS-corner Pts in the domain
(PID.TID 0000.0001) %MON fCori_max                    =   1.4574827780704E-04
(PID.TID 0000.0001) %MON fCori_min                    =  -1.4574827780704E-04
(PID.TID 0000.0001) %MON fCori_mean                   =   0.0000000000000E+00
(PID.TID 0000.0001) %MON fCori_sd                     =   8.4202189509968E-05
(PID.TID 0000.0001) %MON fCoriG_max                   =   1.4584247033981E-04
(PID.TID 0000.0001) %MON fCoriG_min                   =  -1.4584247033981E-04
(PID.TID 0000.0001) %MON fCoriG_mean                  =   2.2587545260115E-21
(PID.TID 0000.0001) %MON fCoriG_sd                    =   8.4202189509968E-05
(PID.TID 0000.0001) %MON fCoriCos_max                 =   1.4580166994612E-04
(PID.TID 0000.0001) %MON fCoriCos_min                 =   5.2407700865903E-06
(PID.TID 0000.0001) %MON fCoriCos_mean                =   1.1514045869113E-04
(PID.TID 0000.0001) %MON fCoriCos_sd                  =   3.0375849106513E-05
(PID.TID 0000.0001) INI_CG2D: CG2D normalisation factor =  1.9156564154949553E-04
(PID.TID 0000.0001) 
(PID.TID 0000.0001) // =======================================================
(PID.TID 0000.0001) // Model configuration
(PID.TID 0000.0001) // =======================================================
(PID.TID 0000.0001) //
(PID.TID 0000.0001) // "Physical" paramters ( PARM01 in namelist )
(PID.TID 0000.0001) //
(PID.TID 0000.0001) buoyancyRelation = /* Type of relation to get Buoyancy */
(PID.TID 0000.0001)               'OCEANIC'
(PID.TID 0000.0001)     ;
(PID.TID 0000.0001) fluidIsAir   =  /* fluid major constituent is Air */
(PID.TID 0000.0001)                   F
(PID.TID 0000.0001)     ;
(PID.TID 0000.0001) fluidIsWater =  /* fluid major constituent is Water */
(PID.TID 0000.0001)                   T
(PID.TID 0000.0001)     ;
(PID.TID 0000.0001) usingPCoords =  /* use p (or p*) vertical coordinate */
(PID.TID 0000.0001)                   F
(PID.TID 0000.0001)     ;
(PID.TID 0000.0001) usingZCoords =  /* use z (or z*) vertical coordinate */
(PID.TID 0000.0001)                   T
(PID.TID 0000.0001)     ;
(PID.TID 0000.0001) tRef =   /* Reference temperature profile ( oC or K ) */
(PID.TID 0000.0001)    15 @  2.000000000000000E+01              /* K =  1: 15 */
(PID.TID 0000.0001)     ;
(PID.TID 0000.0001) sRef =   /* Reference salinity profile ( psu ) */
(PID.TID 0000.0001)    15 @  3.500000000000000E+01              /* K =  1: 15 */
(PID.TID 0000.0001)     ;
(PID.TID 0000.0001) useStrainTensionVisc= /* Use StrainTension Form of Viscous Operator */
(PID.TID 0000.0001)                   F
(PID.TID 0000.0001)     ;
(PID.TID 0000.0001) useVariableVisc = /* Use variable horizontal viscosity */
(PID.TID 0000.0001)                   F
(PID.TID 0000.0001)     ;
(PID.TID 0000.0001) useHarmonicVisc = /* Use harmonic horizontal viscosity */
(PID.TID 0000.0001)                   T
(PID.TID 0000.0001)     ;
(PID.TID 0000.0001) useBiharmonicVisc= /* Use biharmonic horiz.  viscosity */
(PID.TID 0000.0001)                   F
(PID.TID 0000.0001)     ;
(PID.TID 0000.0001) useSmag3D = /* Use isotropic 3-D Smagorinsky viscosity */
(PID.TID 0000.0001)                   F
(PID.TID 0000.0001)     ;
(PID.TID 0000.0001) viscAh  =   /* Lateral harmonic viscosity ( m^2/s ) */
(PID.TID 0000.0001)                 3.000000000000000E+05
(PID.TID 0000.0001)     ;
(PID.TID 0000.0001) viscA4  =   /* Lateral biharmonic viscosity ( m^4/s ) */
(PID.TID 0000.0001)                 0.000000000000000E+00
(PID.TID 0000.0001)     ;
(PID.TID 0000.0001) no_slip_sides =  /* Viscous BCs: No-slip sides */
(PID.TID 0000.0001)                   T
(PID.TID 0000.0001)     ;
(PID.TID 0000.0001) sideDragFactor = /* side-drag scaling factor (non-dim) */
(PID.TID 0000.0001)                 2.000000000000000E+00
(PID.TID 0000.0001)     ;
(PID.TID 0000.0001) viscArNr = /* vertical profile of vertical viscosity ( m^2/s )*/
(PID.TID 0000.0001)    15 @  1.000000000000000E-03              /* K =  1: 15 */
(PID.TID 0000.0001)     ;
(PID.TID 0000.0001) no_slip_bottom =  /* Viscous BCs: No-slip bottom */
(PID.TID 0000.0001)                   T
(PID.TID 0000.0001)     ;
(PID.TID 0000.0001) bottomVisc_pCell = /* Partial-cell in bottom Visc. BC */
(PID.TID 0000.0001)                   F
(PID.TID 0000.0001)     ;
(PID.TID 0000.0001) bottomDragLinear = /* linear bottom-drag coefficient ( m/s ) */
(PID.TID 0000.0001)                 0.000000000000000E+00
(PID.TID 0000.0001)     ;
(PID.TID 0000.0001) bottomDragQuadratic = /* quadratic bottom-drag coefficient (-) */
(PID.TID 0000.0001)                 0.000000000000000E+00
(PID.TID 0000.0001)     ;
(PID.TID 0000.0001) selectBotDragQuadr = /* select quadratic bottom drag options */
(PID.TID 0000.0001)                      -1
(PID.TID 0000.0001)     ;
(PID.TID 0000.0001) diffKhT =   /* Laplacian diffusion of heat laterally ( m^2/s ) */
(PID.TID 0000.0001)                 0.000000000000000E+00
(PID.TID 0000.0001)     ;
(PID.TID 0000.0001) diffK4T =   /* Biharmonic diffusion of heat laterally ( m^4/s ) */
(PID.TID 0000.0001)                 0.000000000000000E+00
(PID.TID 0000.0001)     ;
(PID.TID 0000.0001) diffKhS =   /* Laplacian diffusion of salt laterally ( m^2/s ) */
(PID.TID 0000.0001)                 0.000000000000000E+00
(PID.TID 0000.0001)     ;
(PID.TID 0000.0001) diffK4S =   /* Biharmonic diffusion of salt laterally ( m^4/s ) */
(PID.TID 0000.0001)                 0.000000000000000E+00
(PID.TID 0000.0001)     ;
(PID.TID 0000.0001) diffKrNrT = /* vertical profile of vertical diffusion of Temp ( m^2/s )*/
(PID.TID 0000.0001)    15 @  3.000000000000000E-05              /* K =  1: 15 */
(PID.TID 0000.0001)     ;
(PID.TID 0000.0001) diffKrNrS = /* vertical profile of vertical diffusion of Salt ( m^2/s )*/
(PID.TID 0000.0001)    15 @  3.000000000000000E-05              /* K =  1: 15 */
(PID.TID 0000.0001)     ;
(PID.TID 0000.0001) diffKrBL79surf = /* Surface diffusion for Bryan and Lewis 79 ( m^2/s ) */
(PID.TID 0000.0001)                 0.000000000000000E+00
(PID.TID 0000.0001)     ;
(PID.TID 0000.0001) diffKrBL79deep = /* Deep diffusion for Bryan and Lewis 1979 ( m^2/s ) */
(PID.TID 0000.0001)                 0.000000000000000E+00
(PID.TID 0000.0001)     ;
(PID.TID 0000.0001) diffKrBL79scl = /* Depth scale for Bryan and Lewis 1979 ( m ) */
(PID.TID 0000.0001)                 2.000000000000000E+02
(PID.TID 0000.0001)     ;
(PID.TID 0000.0001) diffKrBL79Ho = /* Turning depth for Bryan and Lewis 1979 ( m ) */
(PID.TID 0000.0001)                -2.000000000000000E+03
(PID.TID 0000.0001)     ;
(PID.TID 0000.0001) ivdc_kappa = /* Implicit Vertical Diffusivity for Convection ( m^2/s) */
(PID.TID 0000.0001)                 1.000000000000000E+01
(PID.TID 0000.0001)     ;
(PID.TID 0000.0001) hMixCriteria=  /* Criteria for mixed-layer diagnostic */
(PID.TID 0000.0001)                -8.000000000000000E-01
(PID.TID 0000.0001)     ;
(PID.TID 0000.0001) dRhoSmall =  /* Parameter for mixed-layer diagnostic */
(PID.TID 0000.0001)                 1.000000000000000E-06
(PID.TID 0000.0001)     ;
(PID.TID 0000.0001) hMixSmooth=  /* Smoothing parameter for mixed-layer diagnostic */
(PID.TID 0000.0001)                 0.000000000000000E+00
(PID.TID 0000.0001)     ;
(PID.TID 0000.0001) eosType =  /* Type of Equation of State */
(PID.TID 0000.0001)               'JMD95Z'
(PID.TID 0000.0001)     ;
(PID.TID 0000.0001) selectP_inEOS_Zc = /* select pressure to use in EOS (0,1,2,3) */
(PID.TID 0000.0001)                       0
(PID.TID 0000.0001)     0= -g*rhoConst*z ; 1= pRef (from tRef,sRef); 2= Hyd P ; 3= Hyd+NH P
(PID.TID 0000.0001)     ;
(PID.TID 0000.0001) HeatCapacity_Cp =  /* Specific heat capacity ( J/kg/K ) */
(PID.TID 0000.0001)                 3.994000000000000E+03
(PID.TID 0000.0001)     ;
(PID.TID 0000.0001) celsius2K = /* 0 degree Celsius converted to Kelvin ( K ) */
(PID.TID 0000.0001)                 2.731500000000000E+02
(PID.TID 0000.0001)     ;
(PID.TID 0000.0001) rhoConst  = /* Reference density (Boussinesq)  ( kg/m^3 ) */
(PID.TID 0000.0001)                 1.035000000000000E+03
(PID.TID 0000.0001)     ;
(PID.TID 0000.0001) rhoFacC = /* normalized Reference density @ cell-Center (-) */
(PID.TID 0000.0001)    15 @  1.000000000000000E+00              /* K =  1: 15 */
(PID.TID 0000.0001)     ;
(PID.TID 0000.0001) rhoFacF = /* normalized Reference density @ W-Interface (-) */
(PID.TID 0000.0001)    16 @  1.000000000000000E+00              /* K =  1: 16 */
(PID.TID 0000.0001)     ;
(PID.TID 0000.0001) rhoConstFresh = /* Fresh-water reference density ( kg/m^3 ) */
(PID.TID 0000.0001)                 1.000000000000000E+03
(PID.TID 0000.0001)     ;
(PID.TID 0000.0001) gravity =   /* Gravitational acceleration ( m/s^2 ) */
(PID.TID 0000.0001)                 9.810000000000000E+00
(PID.TID 0000.0001)     ;
(PID.TID 0000.0001) gBaro =   /* Barotropic gravity ( m/s^2 ) */
(PID.TID 0000.0001)                 9.810000000000000E+00
(PID.TID 0000.0001)     ;
(PID.TID 0000.0001) gravFacC = /* gravity factor (vs surf.) @ cell-Center (-) */
(PID.TID 0000.0001)    15 @  1.000000000000000E+00              /* K =  1: 15 */
(PID.TID 0000.0001)     ;
(PID.TID 0000.0001) gravFacF = /* gravity factor (vs surf.) @ W-Interface (-) */
(PID.TID 0000.0001)    16 @  1.000000000000000E+00              /* K =  1: 16 */
(PID.TID 0000.0001)     ;
(PID.TID 0000.0001) rotationPeriod =   /* Rotation Period ( s ) */
(PID.TID 0000.0001)                 8.616400000000000E+04
(PID.TID 0000.0001)     ;
(PID.TID 0000.0001) omega =   /* Angular velocity ( rad/s ) */
(PID.TID 0000.0001)                 7.292123516990375E-05
(PID.TID 0000.0001)     ;
(PID.TID 0000.0001) f0 =   /* Reference coriolis parameter ( 1/s ) */
(PID.TID 0000.0001)                 1.000000000000000E-04
(PID.TID 0000.0001)     ;
(PID.TID 0000.0001) beta =   /* Beta ( 1/(m.s) ) */
(PID.TID 0000.0001)                 9.999999999999999E-12
(PID.TID 0000.0001)     ;
(PID.TID 0000.0001) fPrime =   /* Second coriolis parameter ( 1/s ) */
(PID.TID 0000.0001)                 0.000000000000000E+00
(PID.TID 0000.0001)     ;
(PID.TID 0000.0001) rigidLid =   /* Rigid lid on/off flag */
(PID.TID 0000.0001)                   F
(PID.TID 0000.0001)     ;
(PID.TID 0000.0001) implicitFreeSurface =   /* Implicit free surface on/off flag */
(PID.TID 0000.0001)                   T
(PID.TID 0000.0001)     ;
(PID.TID 0000.0001) freeSurfFac =   /* Implicit free surface factor */
(PID.TID 0000.0001)                 1.000000000000000E+00
(PID.TID 0000.0001)     ;
(PID.TID 0000.0001) implicSurfPress =  /* Surface Pressure implicit factor (0-1)*/
(PID.TID 0000.0001)                 1.000000000000000E+00
(PID.TID 0000.0001)     ;
(PID.TID 0000.0001) implicDiv2DFlow =  /* Barot. Flow Div. implicit factor (0-1)*/
(PID.TID 0000.0001)                 1.000000000000000E+00
(PID.TID 0000.0001)     ;
(PID.TID 0000.0001) uniformLin_PhiSurf = /* use uniform Bo_surf on/off flag*/
(PID.TID 0000.0001)                   T
(PID.TID 0000.0001)     ;
(PID.TID 0000.0001) uniformFreeSurfLev = /* free-surface level-index is uniform */
(PID.TID 0000.0001)                   T
(PID.TID 0000.0001)     ;
(PID.TID 0000.0001) hFacMin =   /* minimum partial cell factor (hFac) */
(PID.TID 0000.0001)                 1.000000000000000E-01
(PID.TID 0000.0001)     ;
(PID.TID 0000.0001) hFacMinDr = /* minimum partial cell thickness ( m) */
(PID.TID 0000.0001)                 2.000000000000000E+01
(PID.TID 0000.0001)     ;
(PID.TID 0000.0001) exactConserv =  /* Exact Volume Conservation on/off flag*/
(PID.TID 0000.0001)                   T
(PID.TID 0000.0001)     ;
(PID.TID 0000.0001) linFSConserveTr = /* Tracer correction for Lin Free Surface on/off flag*/
(PID.TID 0000.0001)                   F
(PID.TID 0000.0001)     ;
(PID.TID 0000.0001) nonlinFreeSurf = /* Non-linear Free Surf. options (-1,0,1,2,3)*/
(PID.TID 0000.0001)                       4
(PID.TID 0000.0001)      -1,0= Off ; 1,2,3= On, 2=+rescale gU,gV, 3=+update cg2d solv.
(PID.TID 0000.0001)     ;
(PID.TID 0000.0001) hFacInf =   /* lower threshold for hFac (nonlinFreeSurf only)*/
(PID.TID 0000.0001)                 2.000000000000000E-01
(PID.TID 0000.0001)     ;
(PID.TID 0000.0001) hFacSup =   /* upper threshold for hFac (nonlinFreeSurf only)*/
(PID.TID 0000.0001)                 2.000000000000000E+00
(PID.TID 0000.0001)     ;
(PID.TID 0000.0001) select_rStar = /* r* Vertical coord. options (=0 r coord.; >0 uses r*)*/
(PID.TID 0000.0001)                       2
(PID.TID 0000.0001)     ;
(PID.TID 0000.0001) useRealFreshWaterFlux = /* Real Fresh Water Flux on/off flag*/
(PID.TID 0000.0001)                   T
(PID.TID 0000.0001)     ;
(PID.TID 0000.0001) temp_EvPrRn = /* Temp. of Evap/Prec/R (UNSET=use local T)(oC)*/
(PID.TID 0000.0001)                 1.234567000000000E+05
(PID.TID 0000.0001)     ;
(PID.TID 0000.0001) salt_EvPrRn = /* Salin. of Evap/Prec/R (UNSET=use local S)(psu)*/
(PID.TID 0000.0001)                 0.000000000000000E+00
(PID.TID 0000.0001)     ;
(PID.TID 0000.0001) selectAddFluid = /* option for mass source/sink of fluid (=0: off) */
(PID.TID 0000.0001)                       0
(PID.TID 0000.0001)     ;
(PID.TID 0000.0001) temp_addMass = /* Temp. of addMass array (UNSET=use local T)(oC)*/
(PID.TID 0000.0001)                 1.234567000000000E+05
(PID.TID 0000.0001)     ;
(PID.TID 0000.0001) salt_addMass = /* Salin. of addMass array (UNSET=use local S)(psu)*/
(PID.TID 0000.0001)                 0.000000000000000E+00
(PID.TID 0000.0001)     ;
(PID.TID 0000.0001) use3Dsolver = /* use 3-D pressure solver on/off flag */
(PID.TID 0000.0001)                   F
(PID.TID 0000.0001)     ;
(PID.TID 0000.0001) nonHydrostatic =  /* Non-Hydrostatic on/off flag */
(PID.TID 0000.0001)                   F
(PID.TID 0000.0001)     ;
(PID.TID 0000.0001) nh_Am2 = /* Non-Hydrostatic terms scaling factor */
(PID.TID 0000.0001)                 1.000000000000000E+00
(PID.TID 0000.0001)     ;
(PID.TID 0000.0001) implicitNHPress = /* Non-Hyd Pressure implicit factor (0-1)*/
(PID.TID 0000.0001)                 1.000000000000000E+00
(PID.TID 0000.0001)     ;
(PID.TID 0000.0001) selectNHfreeSurf = /* Non-Hyd (free-)Surface option */
(PID.TID 0000.0001)                       0
(PID.TID 0000.0001)     ;
(PID.TID 0000.0001) quasiHydrostatic = /* Quasi-Hydrostatic on/off flag */
(PID.TID 0000.0001)                   F
(PID.TID 0000.0001)     ;
(PID.TID 0000.0001) calc_wVelocity = /* vertical velocity calculation on/off flag */
(PID.TID 0000.0001)                   T
(PID.TID 0000.0001)     ;
(PID.TID 0000.0001) momStepping =  /* Momentum equation on/off flag */
(PID.TID 0000.0001)                   T
(PID.TID 0000.0001)     ;
(PID.TID 0000.0001) vectorInvariantMomentum= /* Vector-Invariant Momentum on/off */
(PID.TID 0000.0001)                   T
(PID.TID 0000.0001)     ;
(PID.TID 0000.0001) momAdvection =  /* Momentum advection on/off flag */
(PID.TID 0000.0001)                   T
(PID.TID 0000.0001)     ;
(PID.TID 0000.0001) momViscosity =  /* Momentum viscosity on/off flag */
(PID.TID 0000.0001)                   T
(PID.TID 0000.0001)     ;
(PID.TID 0000.0001) momImplVertAdv= /* Momentum implicit vert. advection on/off*/
(PID.TID 0000.0001)                   F
(PID.TID 0000.0001)     ;
(PID.TID 0000.0001) implicitViscosity = /* Implicit viscosity on/off flag */
(PID.TID 0000.0001)                   F
(PID.TID 0000.0001)     ;
(PID.TID 0000.0001) selectImplicitDrag= /* Implicit bot Drag options (0,1,2)*/
(PID.TID 0000.0001)                       0
(PID.TID 0000.0001)     0= Expl. ; 1= Impl. on provis. Vel ; 2= Fully Impl (with surf.P)
(PID.TID 0000.0001)     ;
[...]
(PID.TID 0000.0001) %MON forcing_empmr_min            =  -6.0234662145376E-02
(PID.TID 0000.0001) %MON forcing_empmr_mean           =  -3.2605683693274E-04
(PID.TID 0000.0001) %MON forcing_empmr_sd             =   2.7034981445503E-03
(PID.TID 0000.0001) %MON forcing_empmr_del2           =   1.0527029819973E-04
(PID.TID 0000.0001) %MON forcing_fu_max               =   4.7801791299664E-01
(PID.TID 0000.0001) %MON forcing_fu_min               =  -5.9614340169782E-01
(PID.TID 0000.0001) %MON forcing_fu_mean              =  -2.6826069416652E-03
(PID.TID 0000.0001) %MON forcing_fu_sd                =   7.8233558241727E-02
(PID.TID 0000.0001) %MON forcing_fu_del2              =   6.6753328808691E-04
(PID.TID 0000.0001) %MON forcing_fv_max               =   3.2138900288693E-01
(PID.TID 0000.0001) %MON forcing_fv_min               =  -3.2369099793867E-01
(PID.TID 0000.0001) %MON forcing_fv_mean              =  -6.4910692935824E-03
(PID.TID 0000.0001) %MON forcing_fv_sd                =   7.0458694000768E-02
(PID.TID 0000.0001) %MON forcing_fv_del2              =   5.4701427170219E-04
(PID.TID 0000.0001) %MON trAdv_CFL_u_max              =   1.7627295585967E-03
(PID.TID 0000.0001) %MON trAdv_CFL_v_max              =   1.3261288797969E-03
(PID.TID 0000.0001) %MON trAdv_CFL_w_max              =   1.0546008485830E-03
(PID.TID 0000.0001) %MON advcfl_uvel_max              =   1.3607398409514E-03
(PID.TID 0000.0001) %MON advcfl_vvel_max              =   1.3886113711897E-03
(PID.TID 0000.0001) %MON advcfl_wvel_max              =   2.0951186833174E-03
(PID.TID 0000.0001) %MON advcfl_W_hf_max              =   1.2398774368604E-03
(PID.TID 0000.0001) %MON pe_b_mean                    =   9.1007971244727E-06
(PID.TID 0000.0001) %MON ke_max                       =   1.1276937042068E-01
(PID.TID 0000.0001) %MON ke_mean                      =   3.0197074736735E-05
(PID.TID 0000.0001) %MON ke_vol                       =   1.3398198605226E+18
(PID.TID 0000.0001) %MON vort_r_min                   =  -2.3810828734329E-06
(PID.TID 0000.0001) %MON vort_r_max                   =   2.3296347118913E-06
(PID.TID 0000.0001) %MON vort_a_mean                  =  -2.0549865324846E-05
(PID.TID 0000.0001) %MON vort_a_sd                    =   7.5259403967419E-05
(PID.TID 0000.0001) %MON vort_p_mean                  =  -2.4783198281756E-05
(PID.TID 0000.0001) %MON vort_p_sd                    =   1.2810501527208E-04
(PID.TID 0000.0001) %MON surfExpan_theta_mean         =  -1.8331909911617E-07
(PID.TID 0000.0001) %MON surfExpan_salt_mean          =   6.9433240591361E-07
(PID.TID 0000.0001) // =======================================================
(PID.TID 0000.0001) // End MONITOR dynamic field statistics
(PID.TID 0000.0001) // =======================================================
(PID.TID 0000.0001) // =======================================================
(PID.TID 0000.0001) // Begin MONITOR SEAICE statistics
(PID.TID 0000.0001) // =======================================================
(PID.TID 0000.0001) %MON seaice_tsnumber              =                    95
(PID.TID 0000.0001) %MON seaice_time_sec              =   8.5500000000000E+04
(PID.TID 0000.0001) %MON seaice_uice_max              =   2.2418853938196E-01
(PID.TID 0000.0001) %MON seaice_uice_min              =  -3.4340493206143E-01
(PID.TID 0000.0001) %MON seaice_uice_mean             =  -6.9113903663006E-03
(PID.TID 0000.0001) %MON seaice_uice_sd               =   4.1238183431074E-02
(PID.TID 0000.0001) %MON seaice_uice_del2             =   7.7903874467440E-04
(PID.TID 0000.0001) %MON seaice_vice_max              =   3.7354513138282E-01
(PID.TID 0000.0001) %MON seaice_vice_min              =  -2.6901041768710E-01
(PID.TID 0000.0001) %MON seaice_vice_mean             =  -6.9752407860921E-03
(PID.TID 0000.0001) %MON seaice_vice_sd               =   4.6538312179471E-02
(PID.TID 0000.0001) %MON seaice_vice_del2             =   7.6885435954982E-04
(PID.TID 0000.0001) %MON seaice_area_max              =   9.7468734770382E-01
(PID.TID 0000.0001) %MON seaice_area_min              =   0.0000000000000E+00
(PID.TID 0000.0001) %MON seaice_area_mean             =   6.0038612601354E-02
(PID.TID 0000.0001) %MON seaice_area_sd               =   2.1253335727261E-01
(PID.TID 0000.0001) %MON seaice_area_del2             =   1.4022199141868E-03
(PID.TID 0000.0001) %MON seaice_heff_max              =   8.1898081470188E+00
(PID.TID 0000.0001) %MON seaice_heff_min              =   0.0000000000000E+00
(PID.TID 0000.0001) %MON seaice_heff_mean             =   1.8947104237381E-01
(PID.TID 0000.0001) %MON seaice_heff_sd               =   9.3087912733066E-01
(PID.TID 0000.0001) %MON seaice_heff_del2             =   6.0774102537987E-03
(PID.TID 0000.0001) %MON seaice_hsnow_max             =   1.9640168902064E+00
(PID.TID 0000.0001) %MON seaice_hsnow_min             =   0.0000000000000E+00
(PID.TID 0000.0001) %MON seaice_hsnow_mean            =   2.1027834870681E-02
(PID.TID 0000.0001) %MON seaice_hsnow_sd              =   1.1399930402048E-01
(PID.TID 0000.0001) %MON seaice_hsnow_del2            =   1.4044088456375E-03
(PID.TID 0000.0001) // =======================================================
(PID.TID 0000.0001) // End MONITOR SEAICE statistics
(PID.TID 0000.0001) // =======================================================
 SEAICE_LSR: Residual Initial ipass,Uice,Vice=    1  2.40581235E-03  1.27663497E-03
 SEAICE_LSR (ipass=   1) iters,dU,Resid=     4  3.87758775E-05  9.19713072E-05
 SEAICE_LSR (ipass=   1) iters,dV,Resid=     4  2.15636049E-05  2.36378102E-05
 SEAICE_LSR: Residual Initial ipass,Uice,Vice=    2  1.60471708E-03  8.46885832E-04
 SEAICE_LSR (ipass=   2) iters,dU,Resid=     4  1.84873429E-05  6.30575906E-05
 SEAICE_LSR (ipass=   2) iters,dV,Resid=     4  1.41387166E-05  1.18779961E-05
 cg2d: Sum(rhs),rhsMax =  -1.39032692743881E+02  2.99742359295047E+01
(PID.TID 0000.0001)      cg2d_init_res =   1.99871479821335E-01
(PID.TID 0000.0001)      cg2d_iters(min,last) =      -1      10
(PID.TID 0000.0001)      cg2d_last_res =   9.60867783966684E-08
(PID.TID 0000.0001) // =======================================================
(PID.TID 0000.0001) // Begin MONITOR dynamic field statistics
(PID.TID 0000.0001) // =======================================================
(PID.TID 0000.0001) %MON time_tsnumber                =                    96
(PID.TID 0000.0001) %MON time_secondsf                =   8.6400000000000E+04
(PID.TID 0000.0001) %MON dynstat_eta_max              =   1.2850446603028E+00
(PID.TID 0000.0001) %MON dynstat_eta_min              =  -6.8654752966940E-01
(PID.TID 0000.0001) %MON dynstat_eta_mean             =   4.8424620816754E-02
(PID.TID 0000.0001) %MON dynstat_eta_sd               =   6.6903241304741E-02
(PID.TID 0000.0001) %MON dynstat_eta_del2             =   1.0568052040458E-03
(PID.TID 0000.0001) %MON dynstat_uvel_max             =   2.0706128549898E-01
(PID.TID 0000.0001) %MON dynstat_uvel_min             =  -4.7938119346914E-01
(PID.TID 0000.0001) %MON dynstat_uvel_mean            =  -1.7247795944503E-04
(PID.TID 0000.0001) %MON dynstat_uvel_sd              =   5.4874882287591E-03
(PID.TID 0000.0001) %MON dynstat_uvel_del2            =   7.1170841359817E-05
(PID.TID 0000.0001) %MON dynstat_vvel_max             =   3.5498215124723E-01
(PID.TID 0000.0001) %MON dynstat_vvel_min             =  -2.8505967570069E-01
(PID.TID 0000.0001) %MON dynstat_vvel_mean            =   4.0608675708709E-04
(PID.TID 0000.0001) %MON dynstat_vvel_sd              =   5.8926432680795E-03
(PID.TID 0000.0001) %MON dynstat_vvel_del2            =   7.1252529485125E-05
(PID.TID 0000.0001) %MON dynstat_wvel_max             =   1.1602147265931E-04
(PID.TID 0000.0001) %MON dynstat_wvel_min             =  -9.2609697059226E-05
(PID.TID 0000.0001) %MON dynstat_wvel_mean            =  -9.7091364436054E-08
(PID.TID 0000.0001) %MON dynstat_wvel_sd              =   5.8491835220247E-06
(PID.TID 0000.0001) %MON dynstat_wvel_del2            =   6.9476855448547E-08
(PID.TID 0000.0001) %MON dynstat_theta_max            =   2.2204726902099E+01
(PID.TID 0000.0001) %MON dynstat_theta_min            =   1.6097343817854E+01
(PID.TID 0000.0001) %MON dynstat_theta_mean           =   1.9997969858026E+01
(PID.TID 0000.0001) %MON dynstat_theta_sd             =   2.8966106154494E-02
(PID.TID 0000.0001) %MON dynstat_theta_del2           =   3.9537135459528E-04
(PID.TID 0000.0001) %MON dynstat_salt_max             =   3.5078325676991E+01
(PID.TID 0000.0001) %MON dynstat_salt_min             =   2.8231140346923E+01
(PID.TID 0000.0001) %MON dynstat_salt_mean            =   3.4999536299760E+01
(PID.TID 0000.0001) %MON dynstat_salt_sd              =   3.3405422290362E-02
(PID.TID 0000.0001) %MON dynstat_salt_del2            =   8.7433969590942E-04
(PID.TID 0000.0001) %MON dynstat_sst_max              =   2.2204726902099E+01
(PID.TID 0000.0001) %MON dynstat_sst_min              =   1.6097343817854E+01
(PID.TID 0000.0001) %MON dynstat_sst_mean             =   2.0080292398283E+01
(PID.TID 0000.0001) %MON dynstat_sst_sd               =   2.1067723291113E-01
(PID.TID 0000.0001) %MON dynstat_sst_del2             =   4.6517354681792E-03
(PID.TID 0000.0001) %MON dynstat_sss_max              =   3.5078325676991E+01
(PID.TID 0000.0001) %MON dynstat_sss_min              =   2.8231140346923E+01
(PID.TID 0000.0001) %MON dynstat_sss_mean             =   3.4976562094302E+01
(PID.TID 0000.0001) %MON dynstat_sss_sd               =   2.8519761925091E-01
(PID.TID 0000.0001) %MON dynstat_sss_del2             =   1.0981117489514E-02
(PID.TID 0000.0001) %MON forcing_qnet_max             =   4.1329521400642E+03
(PID.TID 0000.0001) %MON forcing_qnet_min             =  -2.6589096679688E+03
(PID.TID 0000.0001) %MON forcing_qnet_mean            =  -2.4568792991294E+01
(PID.TID 0000.0001) %MON forcing_qnet_sd              =   4.4518172242515E+02
(PID.TID 0000.0001) %MON forcing_qnet_del2            =   5.2234482899295E+00
(PID.TID 0000.0001) %MON forcing_qsw_max              =   0.0000000000000E+00
(PID.TID 0000.0001) %MON forcing_qsw_min              =  -1.0481069690829E+02
(PID.TID 0000.0001) %MON forcing_qsw_mean             =  -2.2468316319434E+01
(PID.TID 0000.0001) %MON forcing_qsw_sd               =   3.0664452374043E+01
(PID.TID 0000.0001) %MON forcing_qsw_del2             =   1.3145606990009E-01
(PID.TID 0000.0001) %MON forcing_empmr_max            =   4.1493903845549E-03
(PID.TID 0000.0001) %MON forcing_empmr_min            =  -5.9614576399326E-02
(PID.TID 0000.0001) %MON forcing_empmr_mean           =  -3.2470894677804E-04
(PID.TID 0000.0001) %MON forcing_empmr_sd             =   2.6773918908259E-03
(PID.TID 0000.0001) %MON forcing_empmr_del2           =   1.0420861505957E-04
(PID.TID 0000.0001) %MON forcing_fu_max               =   4.6886606967749E-01
(PID.TID 0000.0001) %MON forcing_fu_min               =  -5.9866689938204E-01
(PID.TID 0000.0001) %MON forcing_fu_mean              =  -2.8839686528937E-03
(PID.TID 0000.0001) %MON forcing_fu_sd                =   7.8159590946577E-02
(PID.TID 0000.0001) %MON forcing_fu_del2              =   6.6632657746744E-04
(PID.TID 0000.0001) %MON forcing_fv_max               =   3.2225034641164E-01
(PID.TID 0000.0001) %MON forcing_fv_min               =  -3.2590261388859E-01
(PID.TID 0000.0001) %MON forcing_fv_mean              =  -6.4955768436114E-03
(PID.TID 0000.0001) %MON forcing_fv_sd                =   7.0303988970365E-02
(PID.TID 0000.0001) %MON forcing_fv_del2              =   5.4472902829759E-04
(PID.TID 0000.0001) %MON trAdv_CFL_u_max              =   1.7615332525482E-03
(PID.TID 0000.0001) %MON trAdv_CFL_v_max              =   1.3047302216811E-03
(PID.TID 0000.0001) %MON trAdv_CFL_w_max              =   1.0394106035689E-03
(PID.TID 0000.0001) %MON advcfl_uvel_max              =   1.3730213814158E-03
(PID.TID 0000.0001) %MON advcfl_vvel_max              =   1.3695377793529E-03
(PID.TID 0000.0001) %MON advcfl_wvel_max              =   2.0735504834548E-03
(PID.TID 0000.0001) %MON advcfl_W_hf_max              =   1.3263097451458E-03
(PID.TID 0000.0001) %MON pe_b_mean                    =   9.0866971614358E-06
(PID.TID 0000.0001) %MON ke_max                       =   1.0854828926537E-01
(PID.TID 0000.0001) %MON ke_mean                      =   3.0034938243499E-05
(PID.TID 0000.0001) %MON ke_vol                       =   1.3398199636946E+18
(PID.TID 0000.0001) %MON vort_r_min                   =  -2.3605864150610E-06
(PID.TID 0000.0001) %MON vort_r_max                   =   2.3066565345144E-06
(PID.TID 0000.0001) %MON vort_a_mean                  =  -2.0549865324846E-05
(PID.TID 0000.0001) %MON vort_a_sd                    =   7.5259405334058E-05
(PID.TID 0000.0001) %MON vort_p_mean                  =  -2.4783196421815E-05
(PID.TID 0000.0001) %MON vort_p_sd                    =   1.2810500400785E-04
(PID.TID 0000.0001) %MON surfExpan_theta_mean         =  -1.6488000981825E-07
(PID.TID 0000.0001) %MON surfExpan_salt_mean          =   6.8537828487084E-07
(PID.TID 0000.0001) // =======================================================
(PID.TID 0000.0001) // End MONITOR dynamic field statistics
(PID.TID 0000.0001) // =======================================================
(PID.TID 0000.0001) // =======================================================
(PID.TID 0000.0001) // Begin MONITOR SEAICE statistics
(PID.TID 0000.0001) // =======================================================
(PID.TID 0000.0001) %MON seaice_tsnumber              =                    96
(PID.TID 0000.0001) %MON seaice_time_sec              =   8.6400000000000E+04
(PID.TID 0000.0001) %MON seaice_uice_max              =   2.0709690488004E-01
(PID.TID 0000.0001) %MON seaice_uice_min              =  -3.2922322867911E-01
(PID.TID 0000.0001) %MON seaice_uice_mean             =  -7.0292964569481E-03
(PID.TID 0000.0001) %MON seaice_uice_sd               =   4.1093200165476E-02
(PID.TID 0000.0001) %MON seaice_uice_del2             =   7.8030622376267E-04
(PID.TID 0000.0001) %MON seaice_vice_max              =   3.8049121233866E-01
(PID.TID 0000.0001) %MON seaice_vice_min              =  -2.6515315079527E-01
(PID.TID 0000.0001) %MON seaice_vice_mean             =  -6.8155213771804E-03
(PID.TID 0000.0001) %MON seaice_vice_sd               =   4.6436881655976E-02
(PID.TID 0000.0001) %MON seaice_vice_del2             =   7.6527170709084E-04
(PID.TID 0000.0001) %MON seaice_area_max              =   9.7430014117944E-01
(PID.TID 0000.0001) %MON seaice_area_min              =   0.0000000000000E+00
(PID.TID 0000.0001) %MON seaice_area_mean             =   5.9951054045115E-02
(PID.TID 0000.0001) %MON seaice_area_sd               =   2.1229817998298E-01
(PID.TID 0000.0001) %MON seaice_area_del2             =   1.3986564239331E-03
(PID.TID 0000.0001) %MON seaice_heff_max              =   8.1871986070514E+00
(PID.TID 0000.0001) %MON seaice_heff_min              =   0.0000000000000E+00
(PID.TID 0000.0001) %MON seaice_heff_mean             =   1.8930507342243E-01
(PID.TID 0000.0001) %MON seaice_heff_sd               =   9.3039244834026E-01
(PID.TID 0000.0001) %MON seaice_heff_del2             =   6.0758443974176E-03
(PID.TID 0000.0001) %MON seaice_hsnow_max             =   1.9632832066419E+00
(PID.TID 0000.0001) %MON seaice_hsnow_min             =   0.0000000000000E+00
(PID.TID 0000.0001) %MON seaice_hsnow_mean            =   2.1009068253079E-02
(PID.TID 0000.0001) %MON seaice_hsnow_sd              =   1.1394061537463E-01
(PID.TID 0000.0001) %MON seaice_hsnow_del2            =   1.4038024706909E-03
(PID.TID 0000.0001) // =======================================================
(PID.TID 0000.0001) // End MONITOR SEAICE statistics
(PID.TID 0000.0001) // =======================================================
 Computing Diagnostic #     86  oceQnet      Counter:      48   Parms: SM      U1      
 Computing Diagnostic #     87  oceQsw       Counter:      48   Parms: SM      U1      
 Computing Diagnostic #     84  oceFWflx     Counter:      48   Parms: SM      U1      
 Computing Diagnostic #     85  oceSflux     Counter:      48   Parms: SM      U1      
 Computing Diagnostic #     80  oceTAUX      Counter:      48   Parms: UU      U1      
           Vector  Mate for  oceTAUX      Diagnostic #     81  oceTAUY  exists 
 Computing Diagnostic #     81  oceTAUY      Counter:      48   Parms: VV      U1      
           Vector  Mate for  oceTAUY      Diagnostic #     80  oceTAUX  exists 
 Computing Diagnostic #     26  THETA        Counter:      48   Parms: SMR     MR      
 Computing Diagnostic #     27  SALT         Counter:      48   Parms: SMR     MR      
 Computing Diagnostic #     30  UVEL         Counter:      48   Parms: UUR     MR      
           Vector  Mate for  UVEL         Diagnostic #     31  VVEL     exists 
 Computing Diagnostic #     31  VVEL         Counter:      48   Parms: VVR     MR      
           Vector  Mate for  VVEL         Diagnostic #     30  UVEL     exists 
 Computing Diagnostic #    211  SIarea       Counter:      48   Parms: SM      M1      
 Computing Diagnostic #    214  SIheff       Counter:      48   Parms: SM      M1      
 Computing Diagnostic #    216  SIhsnow      Counter:      48   Parms: SM      M1      
 Computing Diagnostic #     83  sIceLoad     Counter:      48   Parms: SM      U1      
 Computing Diagnostic #    220  SIuice       Counter:      48   Parms: UU      M1      
           Vector  Mate for  SIuice       Diagnostic #    221  SIvice   exists 
 Computing Diagnostic #    221  SIvice       Counter:      48   Parms: VV      M1      
           Vector  Mate for  SIvice       Diagnostic #    220  SIuice   exists 
 Computing Diagnostic #    222  SItaux       Counter:      48   Parms: UU      U1      
           Vector  Mate for  SItaux       Diagnostic #    223  SItauy   exists 
 Computing Diagnostic #    223  SItauy       Counter:      48   Parms: VV      U1      
           Vector  Mate for  SItauy       Diagnostic #    222  SItaux   exists 
 Compute Stats, Diag. #    211  SIarea    vol(   0 ): 1.456E+15  Parms: SM      M1      
 Compute Stats, Diag. #    214  SIheff    vol(   0 ): 1.456E+15  Parms: SM      M1      
 Compute Stats, Diag. #    216  SIhsnow   vol(   0 ): 1.456E+15  Parms: SM      M1      
 Compute Stats, Diag. #     83  sIceLoad  vol(   0 ): 1.456E+15  Parms: SM      U1      
 Compute Stats, Diag. #    220  SIuice    vol(   0 ): 1.383E+15  Parms: UU      M1      
 Compute Stats, Diag. #    221  SIvice    vol(   0 ): 1.391E+15  Parms: VV      M1      
 Compute Stats, Diag. #    222  SItaux    vol(   0 ): 1.383E+15  Parms: UU      U1      
 Compute Stats, Diag. #    223  SItauy    vol(   0 ): 1.391E+15  Parms: VV      U1      
 Compute Stats, Diag. #    282  SIareaN   vol(   0 ): 7.278E+15  Parms: SM      MX      
 Compute Stats, Diag. #    281  SIheffN   vol(   0 ): 7.278E+15  Parms: SM      MX      
 Compute Stats, Diag. #    283  SIhsnowN  vol(   0 ): 7.278E+15  Parms: SM      MX      
 Compute Stats, Diag. #    287  SIqSnow   vol(   0 ): 7.278E+15  Parms: SM      MX      
 Compute Stats, Diag. #    286  SIqIce    vol(   0 ): 2.911E+16  Parms: SM      MX      
 Compute Stats, Diag. #    288  SImeltPd  vol(   0 ): 7.278E+15  Parms: SM      MX      
 Compute Stats, Diag. #    285  SItIces   vol(   0 ): 7.278E+15  Parms: SM      MX      
 Compute Stats, Diag. #    289  SIiceAge  vol(   0 ): 7.278E+15  Parms: SM      MX      
 Compute Stats, Diag. #    290  SI_dArea  vol(   0 ): 7.278E+15  Parms: SM      MX      
 Compute Stats, Diag. #    291  SI_dHeff  vol(   0 ): 7.278E+15  Parms: SM      MX      
 Compute Stats, Diag. #    292  SI_dHsnw  vol(   0 ): 7.278E+15  Parms: SM      MX      
 Compute Stats, Diag. #    295  SI_dQSnw  vol(   0 ): 7.278E+15  Parms: SM      MX      
 Compute Stats, Diag. #    294  SI_dQIce  vol(   0 ): 2.911E+16  Parms: SM      MX      
(PID.TID 0000.0001) DIAGSTATS_CLOSE_IO: close file: iceStDiag.0000000000.txt , unit=    37
(PID.TID 0000.0001) %CHECKPOINT        96 ckptA
